data_CSD_CIF_MOLDRAW
_audit_creation_date 11-24-2023
_audit_creation_method MOLDRAW
_chemical_formula_sum 'H8 C24 N20 F8 Zn2'
_chemical_formula_moiety
;
H8 C24 N20 F8 Zn2
;
loop_
_publ_author_name
Ugliengo
_cell_volume 689.7381
_exptl_crystal_density_diffrn ?
_diffrn_ambient_temperature ?
_refine_ls_R_factor_gt ?
_refine_ls_wR_factor_gt ?
_symmetry_space_group_name_H-M 'P 1'
_symmetry_cell_setting null
_symmetry_Int_Tables_number 1
loop_
_symmetry_equiv_pos_site_id
_symmetry_equiv_pos_as_xyz
1 x,y,z
_cell_length_a  9.6607957
_cell_length_b  9.6607957
_cell_length_c  9.6607957
_cell_angle_alpha  112.169968
_cell_angle_beta  112.169968
_cell_angle_gamma  104.198922
_cell_formula_units_Z 1
loop_
_atom_type_symbol
_atom_type_radius_bond
H  .38
C  .77
N  .75
F  .71
Zn 1.35
loop_
_atom_site_label
_atom_site_type_symbol
_atom_site_fract_x
_atom_site_fract_y
_atom_site_fract_z
H1   H     0.872537160580901   0.722483562036101   0.3035040464841
H2   H     0.418979515552001   0.569033114096801   0.6964959535159
H3   H     0.277516437963901   0.581020484448001   0.1500535985448
H4   H     0.430966885903201   0.127462839419101   0.849946401455201
H5   H     0.733773643141801   3.38401645806606E-02   0.6328611216562
H6   H     0.400979042924501   0.100912521485601   0.367138878343801
H7   H     0.966159835419341   0.599020957075501   0.6999334785612
H8   H     0.899087478514401   0.266226356858201   0.300066521438801
C1   C     0.786740346485801   0.879986659575801   0.447073334745101
C2   C     0.432913324830701   0.339667011740701   0.5529266652549
C3   C     0.120013340424201   0.567086675169301   0.90675368690999
C4   C     0.660332988259301   0.213259653514201   9.32463130900106E-02
C5   C     0.660873593404701   0.872906265077801   0.2986574116098
C6   C     0.574248853468   0.362216181794901   0.7013425883902
C7   C     0.127093734922201   0.425751146532001   0.7879673283269
C8   C     0.637783818205101   0.339126406595301   0.2120326716731
C9   C     0.88941431323   0.801630858042401   0.4302224696195
C10   C     0.371408388422901   0.459191843610501   0.5697775303805
C11   C     0.198369141957601   0.628591611577101   8.77834551876105E-02
C12   C     0.540808156389501   0.110585686770001   0.91221654481239
C13   C     4.95207526273006E-02   0.948537827150091   0.7453343880966
C14   C     0.203203439053501   0.304186364530701   0.254665611903401
C15   C     5.14621728499107E-02   0.796796560946501   0.1009829254772
C16   C     0.695813635469301   0.950479247372701   0.8990170745228
C17   C     0.817168661769401   0.979669005806951   0.6151005390889
C18   C     0.364568466718101   0.202068122680601   0.384899460911101
C19   C     2.03309941930507E-02   0.635431533281901   0.8374996559625
C20   C     0.797931877319401   0.182831338230601   0.1625003440375
C21   C     0.251770809265901   0.437385195613101   0.4173377592028
C22   C     2.00474364103506E-02   0.834433050063101   0.5826622407972
C23   C     0.5626148043869   0.979952563589651   0.8143856136528
C24   C     0.165566949936901   0.748229190734101   0.1856143863472
N1   N     0.624617656890101   2.72981683514766E-03   0.3113300460409
N2   N     0.691399770794301   0.313287610849301   0.6886699539591
N3   N     0.997270183164854   0.308600229205701   0.621887840055
N4   N     0.686712389150701   0.375382343109901   0.378112159945001
N5   N     0.503876400274801   0.952602162382361   0.1446195646821
N6   N     0.807982597700201   0.359256835592701   0.8553804353179
N7   N     4.73978376176408E-02   0.192017402299801   0.551274237892501
N8   N     0.640743164407301   0.496123599725201   0.4487257621075
N9   N     0.566844767613201   0.745836251478901   0.129065177515701
N10   N     0.616771073963201   0.437779590097601   0.8709348224843
N11   N     0.254163748521101   0.383228926036801   0.8210085161343
N12   N     0.562220409902401   0.433155232386801   0.1789914838657
N13   N     0.470787168404401   0.799836956957401   3.52067758820804E-02
N14   N     0.764630181075301   0.435580392522301   0.96479322411792
N15   N     0.200163043042601   0.235369818924701   0.670950211447
N16   N     0.5644196074777   0.529212831595601   0.329049788553
N17   N     0.949029580232651   1.53233498813007E-02   0.7616213476794
N18   N     0.253702002201901   0.187408232553201   0.2383786523206
N19   N     0.984676650118701   0.746297997798101   0.93370623035135
N20   N     0.812591767446801   5.09704197673507E-02   6.62937696486506E-02
F1   F     0.123678316011301   0.764304963625501   0.5795337613936
F2   F     0.184771202231901   0.544144554617701   0.4204662386064
F3   F     0.235695036374501   0.815228797768101   0.3593733523858
F4   F     0.455855445382301   0.876321683988701   0.6406266476142
F5   F     0.189622985880801   0.994409096732552   0.890213999954
F6   F     0.104195096778501   0.299408985926801   0.109786000046001
F7   F     5.59090326744969E-03   0.895804903221501   0.1952138891483
F8   F     0.700591014073201   0.810377014119201   0.8047861108517
Zn1   Zn     0.750000000000001   0.250000000000001   0.5
Zn2   Zn     0.500000000000001   0.500000000000001   4.35225857089994E-16
#END
