data_CSD_CIF_MOLDRAW
_audit_creation_date 11-21-2023
_audit_creation_method MOLDRAW
_chemical_formula_sum 'H12 C24 N20 F4 Zn2'
_chemical_formula_moiety
;
H12 C24 N20 F4 Zn2
;
loop_
_publ_author_name
Ugliengo
_cell_volume 694.4816
_exptl_crystal_density_diffrn ?
_diffrn_ambient_temperature ?
_refine_ls_R_factor_gt ?
_refine_ls_wR_factor_gt ?
_symmetry_space_group_name_H-M 'P 1'
_symmetry_cell_setting null
_symmetry_Int_Tables_number 1
loop_
_symmetry_equiv_pos_site_id
_symmetry_equiv_pos_as_xyz
1 x,y,z
_cell_length_a  9.739596
_cell_length_b  9.739596
_cell_length_c  9.739596
_cell_angle_alpha  114.84676
_cell_angle_beta  114.84676
_cell_angle_gamma  99.184516
_cell_formula_units_Z 1
loop_
_atom_type_symbol
_atom_type_radius_bond
H  .38
C  .77
N  .75
F  .71
Zn 1.35
loop_
_atom_site_label
_atom_site_type_symbol
_atom_site_fract_x
_atom_site_fract_y
_atom_site_fract_z
H1   H     0.7654137552862   6.63087109338494E-02   0.6530650312964
H2   H     0.4132436796374   0.112348723989799   0.3469349687036
H3   H     0.93369128906616   0.586756320362599   0.6991050443523
H4   H     0.8876512760102   0.234586244713799   0.3008949556477
H5   H     0.1268286713446   0.772964325717399   0.6074691923235
H6   H     0.165495133394   0.519359479021199   0.3925308076765
H7   H     0.2270356742826   0.834504866605999   0.3538643456272
H8   H     0.4806405209788   0.873171328655399   0.6461356543728
H9   H     0.1770295621264   0.986993861529089   0.90825028331763
H10   H     7.87435782114599E-02   0.268779278808799   9.17497166823697E-02
H11   H     1.30061384709098E-02   0.921256421788539   0.1900357005973
H12   H     0.7312207211912   0.822970437873599   0.8099642994027
C1   C     0.8079772239242   0.890618491037499   0.4638233551192
C2   C     0.4267951359183   0.344153868804999   0.5361766448808
C3   C     0.1093815089625   0.573204864081699   0.9173587328867
C4   C     0.655846131195   0.192022776075799   8.26412671132997E-02
C5   C     0.6741839229724   0.876742871616399   0.3082552418591
C6   C     0.5684876297573   0.365928681113199   0.6917447581409
C7   C     0.1232571283836   0.431512370242699   0.7974410513559
C8   C     0.6340713188868   0.325816077027599   0.2025589486441
C9   C     0.91285981481602   0.808237441376099   0.4574639729654
C10   C     0.3507734684107   0.455395841850599   0.5425360270346
C11   C     0.1917625586239   0.649226531589299   0.1046223734399
C12   C     0.5446041581494   8.71401851839795E-02   0.8953776265601
C13   C     7.30834451709098E-02   0.954514406351309   0.7792143094626
C14   C     0.1753000968887   0.293869135708299   0.2207856905374
C15   C     4.54855936486899E-02   0.824699903111299   0.1185690388196
C16   C     0.7061308642917   0.926916554829089   0.8814309611804
C17   C     0.845003549764   1.49991439985545E-03   0.6376594860331
C18   C     0.3638404283667   0.207344063730899   0.3623405139669
C19   C     0.998500085600144   0.636159571633299   0.8435036353641
C20   C     0.7926559362691   0.154996450235999   0.1564963646359
C21   C     0.2236158568237   0.431684496286199   0.386216220972
C22   C     4.54682753142098E-02   0.837399635851699   0.613783779028
C23   C     0.5683155037138   0.954531724685789   0.7919313605375
C24   C     0.1626003641483   0.776384143176299   0.2080686394625
N1   N     0.6349234972975   6.94182040916646E-03   0.3194317931648
N2   N     0.6875100272444   0.315491704132699   0.6805682068352
N3   N     0.993058179590833   0.312489972755599   0.6279816768883
N4   N     0.6845082958673   0.365076502702499   0.3720183231117
N5   N     0.5001100975219   0.951516223762499   0.153008679856
N6   N     0.7985075439065   0.347101417665999   0.846991320144
N7   N     0.0484837762375   0.201492456093499   0.5485938737594
N8   N     0.652898582334   0.499889902478099   0.4514061262406
N9   N     0.567296727138   0.743621787144899   0.1376665995091
N10   N     0.6059551876358   0.429630127628899   0.8623334004909
N11   N     0.2563782128551   0.394044812364199   0.8236749399931
N12   N     0.5703698723711   0.432703272861999   0.1763250600069
N13   N     0.4597963622473   0.793776976220499   4.38304713872495E-02
N14   N     0.7499465048333   0.415965890860099   0.95616952861275
N15   N     0.2062230237795   0.250053495166699   0.6660193860268
N16   N     0.5840341091399   0.540203637752699   0.3339806139732
N17   N     0.97382897765625   3.50893479286195E-02   0.7906583010631
N18   N     0.2444310468655   0.183170676593099   0.2093416989369
N19   N     0.96491065207138   0.755568953134499   0.93873962972763
N20   N     0.8168293234069   2.61710223437494E-02   6.12603702723698E-02
F1   F     0.8865233426509   0.7008169821267   0.296132174013
F2   F     0.4046848081138   0.590391168637899   0.703867825986999
F3   F     0.2991830178733   0.595315191886199   0.1857063605242
F4   F     0.4096088313621   0.113476657349099   0.8142936394758
Zn1   Zn     0.75   0.249999999999999   0.5
Zn2   Zn     0.5   0.499999999999999   -2.95905877925606E-16
#END
