data_CSD_CIF_MOLDRAW
_audit_creation_date 03-05-2024
_audit_creation_method MOLDRAW
_chemical_formula_sum 'H4 C24 N20 Cl12 Zn2'
_chemical_formula_moiety
;
H4 C24 N20 Cl12 Zn2
;
loop_
_publ_author_name
Ugliengo
_cell_volume 811.8126
_exptl_crystal_density_diffrn ?
_diffrn_ambient_temperature ?
_refine_ls_R_factor_gt ?
_refine_ls_wR_factor_gt ?
_symmetry_space_group_name_H-M 'P 1'
_symmetry_cell_setting null
_symmetry_Int_Tables_number 1
loop_
_symmetry_equiv_pos_site_id
_symmetry_equiv_pos_as_xyz
1 x,y,z
_cell_length_a  10.1813301
_cell_length_b  10.1813301
_cell_length_c  10.1813301
_cell_angle_alpha  108.561011
_cell_angle_beta  108.561011
_cell_angle_gamma  111.307392
_cell_formula_units_Z 1
loop_
_atom_type_symbol
_atom_type_radius_bond
H  .38
C  .77
N  .75
Cl .99
Zn 1.35
loop_
_atom_site_label
_atom_site_type_symbol
_atom_site_fract_x
_atom_site_fract_y
_atom_site_fract_z
H1   H     0.92057156884168   0.8248675147738   0.3455596537293
H2   H     0.4793078610445   0.5750119151124   0.6544403462707
H3   H     0.1751324852262   0.5206921389555   9.57040540678803E-02
H4   H     0.4249880848876   7.94284311583197E-02   0.90429594593212
C1   C     0.7882986358007   0.888658763727   0.456146195043301
C2   C     0.4325125686838   0.3321524407574   0.5438538049567
C3   C     0.111341236273   0.5674874313162   0.8996398720736
C4   C     0.6678475592426   0.2117013641993   0.1003601279264
C5   C     0.6702419655979   0.8709795422971   0.3144041701896
C6   C     0.5565753721075   0.3558377954083   0.6855958298104
C7   C     0.1290204577029   0.4434246278925   0.7992624233008
C8   C     0.6441622045917   0.3297580344021   0.2007375766992
C9   C     0.91825073649463   0.8710204463981   0.4560108652271
C10   C     0.4150095811709   0.4622398712675   0.5439891347729
C11   C     0.1289795536019   0.5849904188291   4.72302900965603E-02
C12   C     0.5377601287325   8.17492635053697E-02   0.95276970990344
C13   C     4.52978101860797E-02   0.98649179874789   0.7389081560428
C14   C     0.2475836427051   0.3063896541433   0.2610918439572
C15   C     1.35082012521098E-02   0.7524163572949   5.88060114381904E-02
C16   C     0.6936103458567   0.95470218981392   0.941193988561811
C17   C     0.7994762363571   0.95830451113521   0.6056726369891
C18   C     0.3526318741461   0.1938035993679   0.3943273630109
C19   C     4.16954888647898E-02   0.6473681258539   0.8411717252218
C20   C     0.8061964006321   0.2005237636429   0.1588282747782
C21   C     0.3331806483148   0.4553450984339   0.4015389809578
C22   C     5.38061174761098E-02   0.93164166735699   0.5984610190422
C23   C     0.5446549015661   0.94619388252389   0.8778355498809
C24   C     6.83583326430096E-02   0.6668193516852   0.1221644501191
N1   N     0.6478146580643   0.996787296158461   0.321080248095
N2   N     0.6757070480635   0.3267344099694   0.678919751905
N3   N     3.2127038415388E-03   0.3242929519365   0.6510273619059
N4   N     0.6732655900306   0.3521853419357   0.3489726380941
N5   N     0.5320470868089   0.94297930830603   0.1702390867458
N6   N     0.7727402215603   0.3618080000632   0.8297609132542
N7   N     5.70206916939697E-02   0.2272597784397   0.5890677785029
N8   N     0.6381919999368   0.4679529131911   0.4109322214971
N9   N     0.5756266777456   0.7439254302016   0.1622526959378
N10   N     0.5816727342638   0.4133739818078   0.8377473040622
N11   N     0.2560745697984   0.4183272657362   0.831701247544
N12   N     0.5866260181922   0.4243733222544   0.168298752456
N13   N     0.4899215346937   0.7940566189505   7.61226879675104E-02
N14   N     0.717933930983   0.4137988467261   0.92387731203249
N15   N     0.2059433810495   0.282066069017   0.6958649157432
N16   N     0.5862011532739   0.5100784653063   0.3041350842568
N17   N     0.92077380717186   0.999148444047915   0.7399447513012
N18   N     0.2592036927468   0.1808290558707   0.2600552486988
N19   N     8.51555952084755E-04   0.7407963072532   0.92162536312395
N20   N     0.8191709441293   7.92261928281397E-02   7.83746368760504E-02
Cl1   Cl     0.6537132699194   1.4643572999147E-03   0.625040682078901
Cl2   Cl     0.376423675221   2.86725878404497E-02   0.3749593179211
Cl3   Cl     0.998535642700085   0.623576324779   0.6522489126194
Cl4   Cl     0.97132741215955   0.3462867300806   0.3477510873806
Cl5   Cl     0.2333664235177   0.96161322252221   0.6044788459704
Cl6   Cl     0.3571343765518   0.6288875775473   0.3955211540296
Cl7   Cl     3.83867774777897E-02   0.6428656234482   0.2717532009955
Cl8   Cl     0.3711124224527   0.7666335764823   0.728246799004501
Cl9   Cl     0.1998684264859   3.95665813137597E-02   0.916211198696641
Cl10   Cl     0.1233553826171   0.2836572277892   8.37888013033603E-02
Cl11   Cl     0.96043341868624   0.8766446173829   0.1603018451721
Cl12   Cl     0.7163427722108   0.8001315735141   0.8396981548279
Zn1   Zn     0.75   0.25   0.5
Zn2   Zn     0.5   0.5   2.46818624566325E-16
#END
