data_CSD_CIF_MOLDRAW
_audit_creation_date 11-27-2023
_audit_creation_method MOLDRAW
_chemical_formula_sum 'H8 C24 N20 Cl8 Zn2'
_chemical_formula_moiety
;
H8 C24 N20 Cl8 Zn2
;
loop_
_publ_author_name
Ugliengo
_cell_volume 768.2
_exptl_crystal_density_diffrn ?
_diffrn_ambient_temperature ?
_refine_ls_R_factor_gt ?
_refine_ls_wR_factor_gt ?
_symmetry_space_group_name_H-M 'P 1'
_symmetry_cell_setting null
_symmetry_Int_Tables_number 1
loop_
_symmetry_equiv_pos_site_id
_symmetry_equiv_pos_as_xyz
1 x,y,z
_cell_length_a  9.9946001
_cell_length_b  9.9946001
_cell_length_c  9.9946001
_cell_angle_alpha  110.186861
_cell_angle_beta  110.186861
_cell_angle_gamma  108.04923
_cell_formula_units_Z 1
loop_
_atom_type_symbol
_atom_type_radius_bond
H  .38
C  .77
N  .75
Cl .99
Zn 1.35
loop_
_atom_site_label
_atom_site_type_symbol
_atom_site_fract_x
_atom_site_fract_y
_atom_site_fract_z
H1   H     0.8444594926828   0.7268889182881   0.3144867644981
H2   H     0.4124021537901   0.5299727281847   0.6855132355019
H3   H     0.2731110817119   0.5875978462099   0.1175705743947
H4   H     0.4700272718153   0.1555405073172   0.8824294256053
H5   H     0.7268429057807   4.88693429990101E-02   0.6139454859625
H6   H     0.4349238570365   0.1128974198182   0.3860545140375
H7   H     0.95113065700099   0.5650761429635   0.6779735627816
H8   H     0.8871025801818   0.2731570942193   0.3220264372184
C1   C     0.7706072146808   0.8884984106128   0.4425041340436
C2   C     0.4459942765692   0.3281030806373   0.5574958659564
C3   C     0.1115015893872   0.5540057234308   0.8821088040681
C4   C     0.6718969193627   0.2293927853192   0.1178911959319
C5   C     0.6525723636444   0.8748176114684   0.297730999286
C6   C     0.5770866121823   0.3548413643584   0.702269000714
C7   C     0.1251823885316   0.4229133878177   0.777754752176
C8   C     0.6451586356416   0.3474276363556   0.222245247824
C9   C     0.8636545111314   0.8098328531815   0.4326909168819
C10   C     0.3771419362995   0.4309635942494   0.5673090831181
C11   C     0.1901671468185   0.6228580637005   5.38216579498797E-02
C12   C     0.5690364057506   0.1363454888686   0.94617834205012
C13   C     0.02222709500085   0.96478097065714   0.7308464100493
C14   C     0.2339345606078   0.2913806849516   0.2691535899507
C15   C     0.03521902934286   0.7660654393922   5.74461243437097E-02
C16   C     0.7086193150484   0.97777290499915   0.94255387565629
C17   C     0.8037419971217   0.994104001841651   0.5997405433915
C18   C     0.3943634584501   0.2040014537301   0.4002594566085
C19   C     5.89599815834902E-03   0.6056365415499   0.80963799528
C20   C     0.7959985462699   0.1962580028783   0.19036200472
C21   C     0.2654713189547   0.4073027288823   0.4207795312848
C22   C     0.98652319759751   0.84469178767   0.5792204687152
C23   C     0.5926972711177   1.34768024024902E-02   0.8581685900724
C24   C     0.15530821233   0.7345286810453   0.1418314099276
N1   N     0.6201156957418   0.999262474246789   0.3065425132695
N2   N     0.6927199609773   0.3135731824723   0.6934574867305
N3   N     7.37525753210719E-04   0.3072800390227   0.620853221495
N4   N     0.6864268175277   0.3798843042582   0.379146778505
N5   N     0.5060876556465   0.94698681262004   0.1470259382241
N6   N     0.7999608743959   0.3590617174224   0.8529740617759
N7   N     0.05301318737996   0.2000391256041   0.5591008430264
N8   N     0.6409382825776   0.4939123443535   0.4408991569736
N9   N     0.5647581180155   0.7492299719745   0.138188300371
N10   N     0.6110416716035   0.4265698176445   0.861811699629
N11   N     0.2507700280255   0.3889583283965   0.815528146041
N12   N     0.5734301823555   0.4352418819845   0.184471853959
N13   N     0.4750789827371   0.8001692055584   4.71480731129597E-02
N14   N     0.7530211324454   0.4279309096241   0.95285192688704
N15   N     0.1998307944416   0.2469788675546   0.6749097771787
N16   N     0.5720690903759   0.5249210172629   0.3250902228213
N17   N     0.9297092650724   3.42947504138901E-02   0.7399264086918
N18   N     0.2943683417221   0.1897828563806   0.2600735913082
N19   N     0.96570524958611   0.7056316582779   0.8954145146585
N20   N     0.8102171436194   7.02907349276001E-02   0.1045854853415
Cl1   Cl     9.88445522359899E-02   0.7460005731798   0.5780057838336
Cl2   Cl     0.1679947893461   0.5208387684024   0.4219942161664
Cl3   Cl     0.2539994268202   0.8320052106539   0.3528439790562
Cl4   Cl     0.4791612315976   0.90115544776401   0.6471560209438
Cl5   Cl     0.1939135338978   2.34267232843701E-02   0.90844845546005
Cl6   Cl     0.1149782678243   0.2854650784378   9.15515445399497E-02
Cl7   Cl     0.97657327671563   0.8850217321757   0.1704868106135
Cl8   Cl     0.7145349215622   0.8060864661022   0.8295131893865
Zn1   Zn     0.75   0.25   0.5
Zn2   Zn     0.5   0.5   1
#END
