data_CSD_CIF_MOLDRAW
_audit_creation_date 11-27-2023
_audit_creation_method MOLDRAW
_chemical_formula_sum 'H4 C24 N20 Cl12 Zn2'
_chemical_formula_moiety
;
H4 C24 N20 Cl12 Zn2
;
loop_
_publ_author_name
Ugliengo
_cell_volume 815.9148
_exptl_crystal_density_diffrn ?
_diffrn_ambient_temperature ?
_refine_ls_R_factor_gt ?
_refine_ls_wR_factor_gt ?
_symmetry_space_group_name_H-M 'P 1'
_symmetry_cell_setting null
_symmetry_Int_Tables_number 1
loop_
_symmetry_equiv_pos_site_id
_symmetry_equiv_pos_as_xyz
1 x,y,z
_cell_length_a  10.2821939
_cell_length_b  10.2821939
_cell_length_c  10.2821939
_cell_angle_alpha  115.021115
_cell_angle_beta  115.021115
_cell_angle_gamma  98.864344
_cell_formula_units_Z 1
loop_
_atom_type_symbol
_atom_type_radius_bond
H  .38
C  .77
N  .75
Cl .99
Zn 1.35
loop_
_atom_site_label
_atom_site_type_symbol
_atom_site_fract_x
_atom_site_fract_y
_atom_site_fract_z
H1   H     0.1279412024552   0.7522665782041   0.5835399360871
H2   H     0.168726642117   0.5444012663681   0.4164600639129
H3   H     0.2477334217959   0.831273357883001   0.3756746242511
H4   H     0.4555987336319   0.8720587975448   0.6243253757489
C1   C     0.8304410281289   0.8760795025511   0.4629682702148
C2   C     0.4131112323363   0.3674727579141   0.5370317297852
C3   C     0.123920497448901   0.5868887676637   0.95436152557776
C4   C     0.632527242085901   0.1695589718711   4.56384744222404E-02
C5   C     0.7063235510649   0.8727256860822   0.3200870426907
C6   C     0.5526386433915   0.3862365083742   0.6799129573093
C7   C     0.127274313917801   0.4473613566085   0.8335978649827
C8   C     0.6137634916258   0.2936764489351   0.1664021350173
C9   C     0.92415460830181   0.7900249351086   0.4496225162878
C10   C     0.3404024188208   0.474532092014   0.5503774837122
C11   C     0.2099750648914   0.6595975811792   0.1341296731932
C12   C     0.525467907986001   7.58453916981904E-02   0.8658703268068
C13   C     8.79836087256605E-02   0.92912688561699   0.7537044381306
C14   C     0.175422447486401   0.334279170595   0.2462955618694
C15   C     7.08731143830103E-02   0.8245775525136   0.1588567231087
C16   C     0.665720829405   0.91201639127434   0.8411432768913
C17   C     0.872421941881   0.97562939475908   0.6324820042869
C18   C     0.3431473904722   0.2399399375941   0.3675179957131
C19   C     2.43706052409205E-02   0.6568526095278   0.8967925471219
C20   C     0.7600600624059   0.127578058119   0.1032074528781
C21   C     0.2244753514909   0.4619789507087   0.4060214889258
C22   C     5.59574617828604E-02   0.8184538625652   0.5939785110742
C23   C     0.5380210492913   0.94404253821714   0.7624964007823
C24   C     0.1815461374348   0.7755246485091   0.2375035992177
N1   N     0.6840765195111   3.93331828733045E-03   0.3301523214405
N2   N     0.6737809968468   0.3539241980706   0.6698476785595
N3   N     0.99606668171267   0.3262190031532   0.6801432012238
N4   N     0.6460758019294   0.3159234804889   0.3198567987762
N5   N     0.558751593282   0.9540042831207   0.1727164046679
N6   N     0.7812878784528   0.3860351886141   0.8272835953321
N7   N     4.59957168793004E-02   0.2187121215472   0.6047473101613
N8   N     0.6139648113859   0.441248406718   0.3952526898387
N9   N     0.5959634618252   0.7452004109833   0.1593231310289
N10   N     0.5858772799545   0.4366403307963   0.8406768689711
N11   N     0.254799589016701   0.4141227200455   0.8507630508418
N12   N     0.5633596692037   0.4040365381748   0.1492369491582
N13   N     0.5049273990881   0.8008064151938   7.25399695705804E-02
N14   N     0.7282664456232   0.4323874295175   0.92746003042942
N15   N     0.199193584806201   0.2717335543768   0.7041209838943
N16   N     0.5676125704825   0.4950726009119   0.2958790161057
N17   N     0.995362022924545   2.65080235649037E-03   0.7720282424011
N18   N     0.2306225599554   0.2233337805234   0.2279717575989
N19   N     0.99734919764351   0.7693774400446   0.992711220568054
N20   N     0.776666219476601   4.63797707545644E-03   7.28877943194649E-03
Cl1   Cl     0.8752968531053   0.641014324173701   0.2531165196521
Cl2   Cl     0.3878978045216   0.6221803334533   0.7468834803479
Cl3   Cl     0.3589856758263   0.6121021954784   0.2342825289316
Cl4   Cl     0.3778196665467   0.1247031468947   0.7657174710684
Cl5   Cl     0.7498641512439   6.76125772976304E-02   0.6650918357555
Cl6   Cl     0.4025207415421   8.47723154884204E-02   0.3349081642445
Cl7   Cl     0.93238742270237   0.597479258457901   0.6822515739463
Cl8   Cl     0.91522768451158   0.2501358487561   0.3177484260537
Cl9   Cl     0.2506293896376   0.96308008248486   0.93403542961516
Cl10   Cl     2.90446528697004E-02   0.3165939600224   6.59645703848403E-02
Cl11   Cl     3.69199175151404E-02   0.9709553471303   0.2875493071527
Cl12   Cl     0.683406039977601   0.7493706103624   0.7124506928473
Zn1   Zn     0.75   0.25   0.5
Zn2   Zn     0.5   0.5   4.14571805704145E-16
#END
