data_CSD_CIF_MOLDRAW
_audit_creation_date 11-27-2023
_audit_creation_method MOLDRAW
_chemical_formula_sum 'C24 N20 Cl16 Zn2'
_chemical_formula_moiety
;
C24 N20 Cl16 Zn2
;
loop_
_publ_author_name
Ugliengo
_cell_volume 891.3831
_exptl_crystal_density_diffrn ?
_diffrn_ambient_temperature ?
_refine_ls_R_factor_gt ?
_refine_ls_wR_factor_gt ?
_symmetry_space_group_name_H-M 'P 1'
_symmetry_cell_setting null
_symmetry_Int_Tables_number 1
loop_
_symmetry_equiv_pos_site_id
_symmetry_equiv_pos_as_xyz
1 x,y,z
_cell_length_a  10.5359416
_cell_length_b  10.5359416
_cell_length_c  10.5359416
_cell_angle_alpha  112.892965
_cell_angle_beta  112.892965
_cell_angle_gamma  102.825256
_cell_formula_units_Z 1
loop_
_atom_type_symbol
_atom_type_radius_bond
C  .77
N  .75
Cl .99
Zn 1.35
loop_
_atom_site_label
_atom_site_type_symbol
_atom_site_fract_x
_atom_site_fract_y
_atom_site_fract_z
C1   C     0.7979997851061   0.8787023507565   0.4470854529819
C2   C     0.4316168977746   0.3509143321242   0.5529145470181
C3   C     0.1212976492435   0.5683831022254   0.91929743434954
C4   C     0.6490856678758   0.2020002148939   0.08070256565046
C5   C     0.6866809356877   0.8668471761316   0.3006124307035
C6   C     0.566234745428   0.3860685049842   0.6993875692965
C7   C     0.1331528238684   0.433765254572   0.8198337595562
C8   C     0.6139314950158   0.3133190643123   0.1801662404438
C9   C     0.89659124714   0.8062196205058   0.4511897654785
C10   C     0.3550298550273   0.4454014816615   0.5488102345215
C11   C     0.1937803794942   0.6449701449727   9.03716266341999E-02
C12   C     0.5545985183385   0.10340875286   0.9096283733658
C13   C     3.71922859451497E-02   0.953140064100929   0.7443848047133
C14   C     0.2087552593876   0.2928074812318   0.2556151952867
C15   C     0.04685993589907   0.7912447406124   8.40522218442197E-02
C16   C     0.7071925187682   0.96280771405485   0.91594777815578
C17   C     0.8276167540066   0.97939969837183   0.6019800999589
C18   C     0.3774195984129   0.2256366540476   0.3980199000411
C19   C     2.06003016281699E-02   0.6225804015871   0.8482170556347
C20   C     0.7743633459524   0.1723832459934   0.1517829443653
C21   C     0.2470086463411   0.4195163221211   0.3995823503812
C22   C     0.01993397173993   0.8474262959599   0.6004176496188
C23   C     0.5804836778789   0.98006602826007   0.82749232422
C24   C     0.1525737040401   0.7529913536589   0.17250767578
N1   N     0.6672080670381   0.992008671060877   0.304848489549
N2   N     0.6871601815119   0.3623595774892   0.695151510451
N3   N     0.007991328939122   0.3128398184881   0.6751993959773
N4   N     0.6376404225108   0.3327919329619   0.3248006040227
N5   N     0.5550031278332   0.94169946078053   0.1504446290191
N6   N     0.7912548317614   0.4045584988141   0.8495553709809
N7   N     5.83005392194699E-02   0.2087451682386   0.6133036670526
N8   N     0.5954415011859   0.4449968721668   0.3866963329474
N9   N     0.5899210504664   0.741509883029   0.1460305843165
N10   N     0.5954792987125   0.44389046615   0.8539694156835
N11   N     0.258490116971   0.4045207012875   0.8484111674375
N12   N     0.55610953385   0.4100789495336   0.1515888325625
N13   N     0.5087636931696   0.7931165948384   5.61508365240997E-02
N14   N     0.7369657583143   0.4526128566455   0.9438491634759
N15   N     0.2068834051616   0.2630342416857   0.7156470983312
N16   N     0.5473871433545   0.4912363068304   0.2843529016688
N17   N     0.93931790464416   1.34084867786496E-02   0.7418532624434
N18   N     0.2715552243352   0.1974646422007   0.2581467375566
N19   N     0.98659151322135   0.7284447756648   0.9259094178655
N20   N     0.8025353577993   6.06820953558397E-02   7.40905821344998E-02
Cl1   Cl     0.8660588898982   0.6661230613617   0.2731681869708
Cl2   Cl     0.392954874391   0.5928907029274   0.7268318130292
Cl3   Cl     0.3338769386383   0.607045125609   0.1999358285365
Cl4   Cl     0.4071092970726   0.1339411101018   0.8000641714635
Cl5   Cl     0.7154613959   7.48446680136198E-02   0.6268032581237
Cl6   Cl     0.4480414098899   8.86581377762096E-02   0.3731967418763
Cl7   Cl     0.92515533198638   0.5519585901101   0.6406167278863
Cl8   Cl     0.91134186222379   0.2845386041   0.3593832721137
Cl9   Cl     0.1489537941251   0.7737010975929   0.6149068254259
Cl10   Cl     0.158794272167   0.5340469686992   0.3850931745741
Cl11   Cl     0.2262989024071   0.841205727833   0.3752526965322
Cl12   Cl     0.4659530313008   0.8510462058749   0.6247473034678
Cl13   Cl     0.1865135358324   4.03488336267879E-03   0.92835293285013
Cl14   Cl     7.56819505125498E-02   0.2581606029822   7.16470671498698E-02
Cl15   Cl     0.995965116637321   0.924318049487449   0.1824786524697
Cl16   Cl     0.7418393970178   0.8134864641676   0.8175213475303
Zn1   Zn     0.75   0.25   0.5
Zn2   Zn     0.5   0.5   -1.72388145425195E-16
#END
