data_CSD_CIF_MOLDRAW
_audit_creation_date 11-27-2023
_audit_creation_method MOLDRAW
_chemical_formula_sum 'H4 C24 N20 Cl12 Zn2'
_chemical_formula_moiety
;
H4 C24 N20 Cl12 Zn2
;
loop_
_publ_author_name
Ugliengo
_cell_volume 832.8124
_exptl_crystal_density_diffrn ?
_diffrn_ambient_temperature ?
_refine_ls_R_factor_gt ?
_refine_ls_wR_factor_gt ?
_symmetry_space_group_name_H-M 'P 1'
_symmetry_cell_setting null
_symmetry_Int_Tables_number 1
loop_
_symmetry_equiv_pos_site_id
_symmetry_equiv_pos_as_xyz
1 x,y,z
_cell_length_a  10.3831059
_cell_length_b  10.3831059
_cell_length_c  10.3831059
_cell_angle_alpha  115.962077
_cell_angle_beta  115.962077
_cell_angle_gamma  97.148861
_cell_formula_units_Z 1
loop_
_atom_type_symbol
_atom_type_radius_bond
H  .38
C  .77
N  .75
Cl .99
Zn 1.35
loop_
_atom_site_label
_atom_site_type_symbol
_atom_site_fract_x
_atom_site_fract_y
_atom_site_fract_z
H1   H     0.1605854075584   1.29730451163199E-02   0.92813864044883
H2   H     8.48344046675001E-02   0.2324467671096   7.18613595511701E-02
H3   H     0.98702695488368   0.91516559533251   0.1476123624421
H4   H     0.7675532328904   0.8394145924416   0.8523876375579
C1   C     0.8108260445983   0.8891155230527   0.4836515598874
C2   C     0.4054639631654   0.3271744847109   0.5163484401126
C3   C     0.1108844769473   0.5945360368346   0.92171052154554
C4   C     0.6728255152891   0.1891739554017   0.07828947845446
C5   C     0.6974902437416   0.8746121258843   0.3246304261182
C6   C     0.5499816997661   0.3728598176234   0.6753695738818
C7   C     0.1253878741157   0.4500183002339   0.8228781178573
C8   C     0.6271401823766   0.3025097562584   0.1771218821427
C9   C     0.91768199665803   0.8163821625414   0.4912793602745
C10   C     0.3251028022669   0.4264026363835   0.5087206397255
C11   C     0.1836178374586   0.6748971977331   0.1012998341166
C12   C     0.5735973636165   8.23180033419699E-02   0.8987001658834
C13   C     6.26614802722901E-02   0.97537783221872   0.8014624523301
C14   C     0.1739153798886   0.2611990279422   0.1985375476699
C15   C     2.46221677812799E-02   0.8260846201114   8.72836480535701E-02
C16   C     0.7388009720578   0.93733851972771   0.91271635194643
C17   C     0.837397804385   0.995761427534159   0.6446034797531
C18   C     0.351157947781   0.1927943246318   0.3553965202469
C19   C     4.23857246584104E-03   0.648842052219   0.8416363768508
C20   C     0.8072056753682   0.162602195615   0.1583636231492
C21   C     0.2133303495523   0.3962923921897   0.3483105246331
C22   C     0.04798186755666   0.8650198249192   0.6516894753669
C23   C     0.6037076078103   0.95201813244334   0.8170379573626
C24   C     0.1349801750808   0.7866696504477   0.1829620426374
N1   N     0.68889790487   3.26041452812697E-03   0.3211250563165
N2   N     0.6821353582116   0.3677728485536   0.6788749436835
N3   N     0.996739585471872   0.3178646417884   0.6856374903419
N4   N     0.6322271514464   0.31110209513   0.3143625096581
N5   N     0.5813586713273   0.950742795344   0.1537445172812
N6   N     0.7969982780628   0.4276141540462   0.8462554827188
N7   N     4.92572046560001E-02   0.2030017219372   0.6306158759833
N8   N     0.5723858459538   0.4186413286727   0.3693841240167
N9   N     0.5971274676985   0.7446213846047   0.1619106137628
N10   N     0.5827107708419   0.4352168539357   0.8380893862372
N11   N     0.2553786153953   0.4172892291581   0.8525060830937
N12   N     0.5647831460643   0.4028725323015   0.1474939169063
N13   N     0.5262185363425   0.7974885523455   5.94556362649602E-02
N14   N     0.7380329160805   0.4667629000776   0.94054436373504
N15   N     0.2025114476545   0.2619670839195   0.7287299839971
N16   N     0.5332370999224   0.4737814636575   0.2712700160029
N17   N     0.95526959242971   0.03621035218287   0.7961668299314
N18   N     0.2400435222514   0.1591027624983   0.2038331700686
N19   N     0.96378964781713   0.7599564777486   0.91905924024684
N20   N     0.8408972375017   4.47304075702899E-02   0.08094075975316
Cl1   Cl     0.8837867349623   0.6700781068722   0.3012699306904
Cl2   Cl     0.3688081761818   0.5825168042719   0.6987300693096
Cl3   Cl     0.3299218931278   0.6311918238182   0.2137086280901
Cl4   Cl     0.4174831957281   0.1162132650377   0.7862913719099
Cl5   Cl     0.7123946501101   0.08933651765457   0.655072447024
Cl6   Cl     0.4342640706306   0.05732220308615   0.344927552976
Cl7   Cl     0.91066348234543   0.5657359293694   0.6230581324556
Cl8   Cl     0.94267779691385   0.2876053498899   0.3769418675444
Cl9   Cl     0.1893137616228   0.7905926543361   0.6748520687323
Cl10   Cl     0.1157405856038   0.5144616928906   0.3251479312677
Cl11   Cl     0.2094073456639   0.8842594143962   0.3987211072867
Cl12   Cl     0.4855383071094   0.8106862383772   0.6012788927133
Zn1   Zn     0.75   0.25   0.5
Zn2   Zn     0.5   0.5   1.26201132877313E-16
#END
