data_CSD_CIF_MOLDRAW
_audit_creation_date 11-27-2023
_audit_creation_method MOLDRAW
_chemical_formula_sum 'H12 C24 N20 Cl4 Zn2'
_chemical_formula_moiety
;
H12 C24 N20 Cl4 Zn2
;
loop_
_publ_author_name
Ugliengo
_cell_volume 730.4799
_exptl_crystal_density_diffrn ?
_diffrn_ambient_temperature ?
_refine_ls_R_factor_gt ?
_refine_ls_wR_factor_gt ?
_symmetry_space_group_name_H-M 'P 1'
_symmetry_cell_setting null
_symmetry_Int_Tables_number 1
loop_
_symmetry_equiv_pos_site_id
_symmetry_equiv_pos_as_xyz
1 x,y,z
_cell_length_a  9.8938757
_cell_length_b  9.8938757
_cell_length_c  9.8938757
_cell_angle_alpha  114.43273
_cell_angle_beta  114.43273
_cell_angle_gamma  99.947796
_cell_formula_units_Z 1
loop_
_atom_type_symbol
_atom_type_radius_bond
H  .38
C  .77
N  .75
Cl .99
Zn 1.35
loop_
_atom_site_label
_atom_site_type_symbol
_atom_site_fract_x
_atom_site_fract_y
_atom_site_fract_z
H1   H     0.757291571797   6.54506396070306E-02   0.6438100681299
H2   H     0.4216405714771   0.113481503667101   0.3561899318701
H3   H     0.93454936039297   0.578359428522901   0.6918409321899
H4   H     0.8865184963329   0.242708428203001   0.3081590678101
H5   H     0.1220568487162   0.785654865251901   0.6437121295695
H6   H     0.1419427356824   0.478344719146701   0.3562878704305
H7   H     0.2143451347481   0.858057264317601   0.3364019834643
H8   H     0.5216552808533   0.8779431512838   0.6635980165357
H9   H     0.1583333589558   9.47974325123891E-04   0.9253624998829
H10   H     7.55854744422197E-02   0.232970859072901   7.46375001171002E-02
H11   H     0.999052025674876   0.924414525557781   0.1573853846306
H12   H     0.7670291409271   0.8416666410442   0.8426146153694
C1   C     0.8113331921123   0.8926483205023   0.4734938891342
C2   C     0.4191544313681   0.337839302978201   0.5265061108658
C3   C     0.1073516794977   0.580845568631901   0.91868487161003
C4   C     0.6621606970218   0.188666807887701   8.13151283899702E-02
C5   C     0.6844542288133   0.8781095398171   0.3173003640145
C6   C     0.5608091758026   0.367153864798801   0.6826996359855
C7   C     0.1218904601829   0.439190824197401   0.8063446889961
C8   C     0.6328461352012   0.315545771186701   0.1936553110039
C9   C     0.91646519074476   0.812604436731001   0.4787091181422
C10   C     0.3338953185887   0.437756072602501   0.5212908818578
C11   C     0.187395563269   0.666104681411301   0.1038607540138
C12   C     0.5622439273975   8.35348092552406E-02   0.8961392459862
C13   C     5.99598873661498E-02   0.9648026635155   0.7948291910907
C14   C     0.1699734724248   0.265130696275501   0.2051708089093
C15   C     3.51973364844997E-02   0.830026527575201   9.51572238506502E-02
C16   C     0.7348693037245   0.940040112633851   0.90484277614935
C17   C     0.8386153881067   4.04940969809461E-03   0.6382360050384
C18   C     0.3658134046597   0.200379383068301   0.3617639949616
C19   C     0.995950590301906   0.634186595340301   0.8345659784086
C20   C     0.7996206169317   0.161384611893301   0.1654340215914
C21   C     0.2074655489217   0.400545177145401   0.3605634533655
C22   C     3.99817237799098E-02   0.846902095556201   0.6394365466345
C23   C     0.5994548228546   0.960018276220091   0.8069203717763
C24   C     0.1530979044438   0.7925344510783   0.1930796282237
N1   N     0.6468544799028   7.01994664857958E-03   0.3289232475328
N2   N     0.6780966991158   0.317931232370101   0.6710767524672
N3   N     0.992980053351421   0.321903300884201   0.6398345332542
N4   N     0.6820687676299   0.353145520097201   0.3601654667458
N5   N     0.5162448404274   0.953692010499931   0.1660267789474
N6   N     0.7876652315525   0.350218061480001   0.8339732210526
N7   N     4.63079895000697E-02   0.212334768447501   0.5625528299275
N8   N     0.64978193852   0.483755159572601   0.4374471700725
N9   N     0.580668985282   0.747727207393101   0.1487516034903
N10   N     0.5989756039028   0.431917381791701   0.8512483965097
N11   N     0.2522727926069   0.401024396097201   0.8329417778889
N12   N     0.5680826182083   0.419331014718001   0.1670582221111
N13   N     0.4768584933414   0.799223660527801   5.86919148872801E-02
N14   N     0.7405317456405   0.418166578454101   0.94130808511272
N15   N     0.2007763394722   0.259468254359501   0.6776348328136
N16   N     0.5818334215459   0.523141506658601   0.3223651671864
N17   N     0.95970320466409   4.18016341524806E-02   0.7937785788796
N18   N     0.2480230552729   0.165924625784501   0.2062214211204
N19   N     0.95819836584752   0.751976944727101   0.91790157051161
N20   N     0.8340753742155   4.02967953359106E-02   8.20984294883901E-02
Cl1   Cl     0.8963679140419   0.671442211025701   0.2867739285367
Cl2   Cl     0.384668282489   0.609593985505101   0.7132260714633
Cl3   Cl     0.3285577889743   0.615331717511   0.2249257030161
Cl4   Cl     0.3904060144949   0.103632085958101   0.7750742969839
Zn1   Zn     0.75   0.250000000000001   0.5
Zn2   Zn     0.5   0.500000000000001   1.52113564799716E-16
#END
