data_CSD_CIF_MOLDRAW
_audit_creation_date 11-27-2023
_audit_creation_method MOLDRAW
_chemical_formula_sum 'H4 C24 N20 Cl12 Zn2'
_chemical_formula_moiety
;
H4 C24 N20 Cl12 Zn2
;
loop_
_publ_author_name
Ugliengo
_cell_volume 809.2732
_exptl_crystal_density_diffrn ?
_diffrn_ambient_temperature ?
_refine_ls_R_factor_gt ?
_refine_ls_wR_factor_gt ?
_symmetry_space_group_name_H-M 'P 1'
_symmetry_cell_setting null
_symmetry_Int_Tables_number 1
loop_
_symmetry_equiv_pos_site_id
_symmetry_equiv_pos_as_xyz
1 x,y,z
_cell_length_a  10.1834834
_cell_length_b  10.1834834
_cell_length_c  10.1834834
_cell_angle_alpha  111.754613
_cell_angle_beta  111.754613
_cell_angle_gamma  104.995047
_cell_formula_units_Z 1
loop_
_atom_type_symbol
_atom_type_radius_bond
H  .38
C  .77
N  .75
Cl .99
Zn 1.35
loop_
_atom_site_label
_atom_site_type_symbol
_atom_site_fract_x
_atom_site_fract_y
_atom_site_fract_z
H1   H     0.7395413514479   0.04920548109443   0.5996366582925
H2   H     0.4495688228019   0.1399046931554   0.4003633417075
H3   H     0.95079451890557   0.5504311771981   0.6903358703535
H4   H     0.8600953068446   0.2604586485521   0.3096641296465
C1   C     0.7914618210543   0.8892660145207   0.4392992557724
C2   C     0.4499667587483   0.3521625652818   0.5607007442276
C3   C     0.1107339854793   0.5500332412517   0.90219580653352
C4   C     0.6478374347182   0.2085381789457   9.78041934664802E-02
C5   C     0.6732710046303   0.8785838877344   0.2959450213636
C6   C     0.5826388663708   0.3773259832667   0.7040549786364
C7   C     0.1214161122656   0.4173611336292   0.7946871168959
C8   C     0.6226740167333   0.3267289953697   0.2053128831041
C9   C     0.8863266075039   0.810088808247   0.4408690473727
C10   C     0.3692197608743   0.4454575601312   0.5591309526273
C11   C     0.189911191753   0.6307802391257   7.62377992569002E-02
C12   C     0.5545424398688   0.1136733924961   0.9237622007431
C13   C     2.64801094186597E-02   0.96120506117408   0.739965329995
C14   C     0.2212397311791   0.2865147794237   0.260034670005
C15   C     3.87949388259196E-02   0.7787602688209   6.52750482445802E-02
C16   C     0.7134852205763   0.97351989058134   0.93472495175542
C17   C     0.8182065155361   0.994828562911048   0.5938130401579
C18   C     0.4010155227531   0.2243934753782   0.4061869598421
C19   C     5.1714370889517E-03   0.5989844772469   0.823377952625
C20   C     0.7756065246218   0.1817934844639   0.176622047375
C21   C     0.25169851182   0.4096378020435   0.4063734155774
C22   C     3.2643864660957E-03   0.8453250962426   0.5936265844226
C23   C     0.5903621979565   0.996735613533904   0.8420607097765
C24   C     0.1546749037574   0.74830148818   0.1579392902235
N1   N     0.6368469895999   2.2486143468461E-03   0.3129592156631
N2   N     0.6892893986837   0.3238877739368   0.6870407843369
N3   N     0.997751385653154   0.3107106013163   0.634598375253
N4   N     0.6761122260632   0.3631530104001   0.365401624747
N5   N     0.5122745845365   0.95018848432489   0.1596463526653
N6   N     0.7905421316596   0.3526282318712   0.8403536473347
N7   N     4.98115156751097E-02   0.2094578683404   0.5620861002116
N8   N     0.6473717681288   0.4877254154635   0.4379138997884
N9   N     0.577231496706   0.7547984277535   0.1364427457258
N10   N     0.6183556820277   0.4407887509802   0.8635572542742
N11   N     0.2452015722465   0.3816443179723   0.8224330689525
N12   N     0.5592112490198   0.422768503294   0.1775669310475
N13   N     0.4777088506557   0.804280153758   5.50356011291003E-02
N14   N     0.7492445526289   0.4226732495266   0.9449643988709
N15   N     0.195719846242   0.2507554473711   0.6734286968977
N16   N     0.5773267504734   0.5222911493443   0.3265713031023
N17   N     0.93428714709369   0.03291894024878   0.7387458226997
N18   N     0.294173117549   0.195541324394   0.2612541773003
N19   N     0.96708105975122   0.705826882451   0.90136820684491
N20   N     0.804458675606   0.06571285290631   9.86317931550902E-02
Cl1   Cl     0.8614258572551   0.668033924706   0.262690874595
Cl2   Cl     0.405343050111   0.5987349826601   0.737309125405
Cl3   Cl     0.331966075294   0.594656949889   0.1933919325491
Cl4   Cl     0.4012650173399   0.1385741427449   0.8066080674509
Cl5   Cl     0.1172157624469   0.7487018925279   0.6073151495217
Cl6   Cl     0.1413867430062   0.5099006129252   0.3926848504783
Cl7   Cl     0.2512981074721   0.8586132569938   0.368513869919
Cl8   Cl     0.4900993870748   0.8827842375531   0.631486130081
Cl9   Cl     0.1755161628868   4.82196037155002E-03   0.92489127412202
Cl10   Cl     7.99306862495296E-02   0.2506248887648   7.51087258779801E-02
Cl11   Cl     0.99517803962845   0.92006931375047   0.1706942025152
Cl12   Cl     0.7493751112352   0.8244838371132   0.8293057974848
Zn1   Zn     0.75   0.25   0.5
Zn2   Zn     0.5   0.5   1
#END
