data_CSD_CIF_MOLDRAW
_audit_creation_date 11-27-2023
_audit_creation_method MOLDRAW
_chemical_formula_sum 'H12 C24 N20 Cl4 Zn2'
_chemical_formula_moiety
;
H12 C24 N20 Cl4 Zn2
;
loop_
_publ_author_name
Ugliengo
_cell_volume 722.2676
_exptl_crystal_density_diffrn ?
_diffrn_ambient_temperature ?
_refine_ls_R_factor_gt ?
_refine_ls_wR_factor_gt ?
_symmetry_space_group_name_H-M 'P 1'
_symmetry_cell_setting null
_symmetry_Int_Tables_number 1
loop_
_symmetry_equiv_pos_site_id
_symmetry_equiv_pos_as_xyz
1 x,y,z
_cell_length_a  10.1342055
_cell_length_b  10.1342055
_cell_length_c  10.1342055
_cell_angle_alpha  121.186077
_cell_angle_beta  121.186077
_cell_angle_gamma  87.957645
_cell_formula_units_Z 1
loop_
_atom_type_symbol
_atom_type_radius_bond
H  .38
C  .77
N  .75
Cl .99
Zn 1.35
loop_
_atom_site_label
_atom_site_type_symbol
_atom_site_fract_x
_atom_site_fract_y
_atom_site_fract_z
H1   H     0.90787043548429   0.7164523604103   0.2928151229615
H2   H     0.4236372374488   0.615055312522801   0.7071848770385
H3   H     0.2835476395897   0.5763627625512   0.191418075074
H4   H     0.3849446874772   9.21295645157105E-02   0.808581924926
H5   H     0.1761182037579   0.7895951408185   0.5913642990559
H6   H     0.1982308417626   0.584753904702001   0.4086357009441
H7   H     0.2104048591815   0.8017691582374   0.3865230629394
H8   H     0.415246095298   0.8238817962421   0.6134769370606
H9   H     0.233573803084   5.40589893718246E-03   0.90973152902218
H10   H     9.56743699149998E-02   0.3238422740618   9.02684709778202E-02
H11   H     0.994594101062818   0.904325630085   0.2281679041468
H12   H     0.6761577259382   0.766426196916   0.7718320958532
C1   C     0.8194122482122   0.8782153651592   0.4501764885538
C2   C     0.4280388766054   0.3692357596584   0.5498235114462
C3   C     0.1217846348408   0.5719611233946   0.94119688305299
C4   C     0.6307642403416   0.1805877517878   5.88031169470101E-02
C5   C     0.6770887020838   0.8720927162577   0.2931497134599
C6   C     0.5789430027978   0.3839389886239   0.7068502865401
C7   C     0.1279072837423   0.421056997202201   0.8049959858261
C8   C     0.6160610113761   0.3229112979162   0.1950040141739
C9   C     0.93502535978701   0.804338360038901   0.4334117628728
C10   C     0.3709265971661   0.5016135969142   0.5665882371272
C11   C     0.1956616399611   0.629073402833901   0.1306869997481
C12   C     0.4983864030858   6.49746402129905E-02   0.8693130002519
C13   C     0.1164000068369   0.963068654460411   0.7757492894896
C14   C     0.1873193649708   0.3406507173473   0.2242507105104
C15   C     3.69313455395899E-02   0.8126806350292   0.1533313523765
C16   C     0.6593492826527   0.883599993163101   0.8466686476235
C17   C     0.857184727276   0.97633096881031   0.6342702575545
C18   C     0.3420607112558   0.2229144697215   0.3657297424455
C19   C     2.36690311896899E-02   0.6579392887442   0.8808537584657
C20   C     0.7770855302785   0.142815272724   0.1191462415343
C21   C     0.2481328275977   0.4861141059388   0.4019590987181
C22   C     8.41550072206698E-02   0.8461737288796   0.5980409012819
C23   C     0.5138858940612   0.915844992779331   0.7620187216589
C24   C     0.1538262711204   0.751867172402301   0.2379812783411
N1   N     0.6531681711626   5.69030686260349E-03   0.2951186953682
N2   N     0.7105716114944   0.3580494757944   0.7048813046318
N3   N     0.994309693137397   0.2894283885056   0.6474778643
N4   N     0.6419505242056   0.3468318288374   0.3525221357
N5   N     0.5160942687594   0.95111007429804   0.1185639821723
N6   N     0.8325460921257   0.3975302865871   0.8814360178277
N7   N     4.88899257019597E-02   0.1674539078743   0.5649841944613
N8   N     0.6024697134129   0.4839057312406   0.4350158055387
N9   N     0.5570254822732   0.7387955448666   0.1217194854223
N10   N     0.6170760594443   0.4353059968509   0.8782805145777
N11   N     0.2612044551334   0.3829239405557   0.8182299374066
N12   N     0.5646940031491   0.442974517726801   0.1817700625934
N13   N     0.4582585242638   0.7913509424474   1.38908176059601E-02
N14   N     0.7774601248415   0.4443677066579   0.98610918239404
N15   N     0.2086490575526   0.2225398751585   0.6669075818164
N16   N     0.5556322933421   0.541741475736201   0.3330924181836
N17   N     7.28524337533427E-04   2.31349309770405E-02   0.7912779351854
N18   N     0.2318569957916   0.2094505891521   0.2087220648146
N19   N     0.97686506902296   0.7681430042084   0.9775935933605
N20   N     0.7905494108479   0.999271475662467   0.0224064066395
Cl1   Cl     0.700525466074   2.97901742515605E-02   0.656029361547
Cl2   Cl     0.3737608127046   4.44961045270905E-02   0.343970638453
Cl3   Cl     0.97020982574844   0.6262391872954   0.6707352918225
Cl4   Cl     0.95550389547291   0.299474533926   0.3292647081775
Zn1   Zn     0.75   0.250000000000001   0.5
Zn2   Zn     0.5   0.500000000000001   1.52113564799716E-16
#END
