data_CSD_CIF_MOLDRAW
_audit_creation_date 11-27-2023
_audit_creation_method MOLDRAW
_chemical_formula_sum 'H12 C24 N20 Cl4 Zn2'
_chemical_formula_moiety
;
H12 C24 N20 Cl4 Zn2
;
loop_
_publ_author_name
Ugliengo
_cell_volume 718.5901
_exptl_crystal_density_diffrn ?
_diffrn_ambient_temperature ?
_refine_ls_R_factor_gt ?
_refine_ls_wR_factor_gt ?
_symmetry_space_group_name_H-M 'P 1'
_symmetry_cell_setting null
_symmetry_Int_Tables_number 1
loop_
_symmetry_equiv_pos_site_id
_symmetry_equiv_pos_as_xyz
1 x,y,z
_cell_length_a  9.8470571
_cell_length_b  9.8470571
_cell_length_c  9.8470571
_cell_angle_alpha  114.702603
_cell_angle_beta  114.702603
_cell_angle_gamma  99.449793
_cell_formula_units_Z 1
loop_
_atom_type_symbol
_atom_type_radius_bond
H  .38
C  .77
N  .75
Cl .99
Zn 1.35
loop_
_atom_site_label
_atom_site_type_symbol
_atom_site_fract_x
_atom_site_fract_y
_atom_site_fract_z
H1   H     0.894809608992001   0.7287534817146   0.354355189211501
H2   H     0.374398292503101   0.540454419780601   0.645644810788501
H3   H     0.271246518285401   0.6256017074969   0.1660561272774
H4   H     0.459545580219401   0.105190391008   0.833943872722601
H5   H     0.723849161368101   5.86689753821405E-02   0.626776290954501
H6   H     0.431892684427701   9.70728704136605E-02   0.373223709045501
H7   H     0.941331024617861   0.5681073155723   0.665180185986001
H8   H     0.902927129586341   0.2761508386319   0.334819814014001
H9   H     0.144479258323001   1.95108734213406E-02   0.92856957013684
H10   H     9.09413032845006E-02   0.215909688186101   7.14304298631606E-02
H11   H     0.980489126578661   0.9090586967155   0.124968384901601
H12   H     0.784090311813901   0.855520741677   0.875031615098401
C1   C     0.793027379111201   0.8915698744458   0.468091312721801
C2   C     0.423478561724001   0.3249360663894   0.531908687278201
C3   C     0.108430125554201   0.576521438276   0.901457504665351
C4   C     0.675063933610601   0.206972620888801   9.85424953346507E-02
C5   C     0.669912259836401   0.8755519041692   0.3070798934907
C6   C     0.568472010678501   0.3628323663457   0.692920106509301
C7   C     0.124448095830801   0.4315279893215   0.794360355667101
C8   C     0.637167633654301   0.3300877401636   0.205639644332901
C9   C     0.903325673205501   0.816099729065001   0.474802834598101
C10   C     0.341296894466901   0.4285228386074   0.525197165401901
C11   C     0.183900270935001   0.658703105533101   8.72259441404804E-02
C12   C     0.571477161392601   9.66743267945005E-02   0.912774055859521
C13   C     4.32894513019107E-02   0.98178906119966   0.7972151356218
C14   C     0.184573925577901   0.2460743156801   0.202784864378201
C15   C     1.82109388003407E-02   0.8154260744221   6.15003901022505E-02
C16   C     0.753925684319901   0.95671054869809   0.938499609897751
C17   C     0.812084108354401   4.09855909755651E-03   0.628519753952501
C18   C     0.375578805145001   0.183564354401901   0.371480246047501
C19   C     0.995901440902445   0.624421194855   0.8079855492569
C20   C     0.816435645598101   0.187915891645601   0.192014450743101
C21   C     0.220977261182501   0.3858029085819   0.3564544167605
C22   C     2.93484918213707E-02   0.864522844422   0.643545583239501
C23   C     0.614197091418101   0.97065150817863   0.835174352600601
C24   C     0.135477155578001   0.7790227388175   0.164825647399401
N1   N     0.636445440722301   5.27544843085049E-03   0.310713628279701
N2   N     0.694561820151101   0.325731812442601   0.689286371720301
N3   N     0.994724551569151   0.3054381798489   0.631169992291501
N4   N     0.674268187557401   0.3635545592777   0.368830007708501
N5   N     0.516509202665801   0.95076969367888   0.139534709002101
N6   N     0.811234984676801   0.3769744936637   0.860465290997901
N7   N     4.92303063211206E-02   0.188765015323201   0.5657395089869
N8   N     0.623025506336301   0.4834907973342   0.434260491013101
N9   N     0.573781322281601   0.7437918058846   0.137729852477101
N10   N     0.606061953407501   0.4360514698045   0.862270147522901
N11   N     0.256208194115401   0.3939380465925   0.829989516396901
N12   N     0.563948530195501   0.426218677718401   0.170010483603101
N13   N     0.479530163610101   0.7946899447387   3.54648253461606E-02
N14   N     0.759225119392601   0.4440653382639   0.96453517465384
N15   N     0.205310055261301   0.240774880607401   0.684840218871401
N16   N     0.555934661736101   0.520469836389901   0.315159781128601
N17   N     0.934835148719431   4.97289263155005E-02   0.789062300449801
N18   N     0.260666625865701   0.145772848269601   0.210937699550201
N19   N     0.950271073684501   0.7393333741343   0.885106222403901
N20   N     0.854227151730401   6.51648512805705E-02   0.114893777596101
Cl1   Cl     0.182192242348501   0.7922073914542   0.679470260872301
Cl2   Cl     0.112737130581901   0.502721981476201   0.320529739127701
Cl3   Cl     0.207792608545801   0.8872628694181   0.389984850894301
Cl4   Cl     0.497278018523801   0.8178077576515   0.610015149105701
Zn1   Zn     0.750000000000001   0.250000000000001   0.500000000000001
Zn2   Zn     0.500000000000001   0.5   5.13857619649505E-16
#END
