data_CSD_CIF_MOLDRAW
_audit_creation_date 11-27-2023
_audit_creation_method MOLDRAW
_chemical_formula_sum 'H12 C24 N20 Cl4 Zn2'
_chemical_formula_moiety
;
H12 C24 N20 Cl4 Zn2
;
loop_
_publ_author_name
Ugliengo
_cell_volume 729.292
_exptl_crystal_density_diffrn ?
_diffrn_ambient_temperature ?
_refine_ls_R_factor_gt ?
_refine_ls_wR_factor_gt ?
_symmetry_space_group_name_H-M 'P 1'
_symmetry_cell_setting null
_symmetry_Int_Tables_number 1
loop_
_symmetry_equiv_pos_site_id
_symmetry_equiv_pos_as_xyz
1 x,y,z
_cell_length_a  9.8792342
_cell_length_b  9.8792342
_cell_length_c  9.8792342
_cell_angle_alpha  114.063718
_cell_angle_beta  114.063718
_cell_angle_gamma  100.63171
_cell_formula_units_Z 1
loop_
_atom_type_symbol
_atom_type_radius_bond
H  .38
C  .77
N  .75
Cl .99
Zn 1.35
loop_
_atom_site_label
_atom_site_type_symbol
_atom_site_fract_x
_atom_site_fract_y
_atom_site_fract_z
H1   H     0.8445313331606   0.6810104894262   0.2842386829522
H2   H     0.396771806474   0.5602926502084   0.7157613170478
H3   H     0.3189895105738   0.603228193526   0.1635208437344
H4   H     0.4397073497916   0.1554686668394   0.8364791562656
H5   H     0.8062882793725   7.06100368717502E-02   0.6629930259698
H6   H     0.4076170109019   0.1432952534027   0.3370069740302
H7   H     0.92938996312825   0.5923829890981   0.7356782425008
H8   H     0.8567047465973   0.1937117206275   0.2643217574992
H9   H     0.07915578197668   0.7076897064039   0.5413214054549
H10   H     0.166368300949   0.5378343765218   0.4586785945451
H11   H     0.2923102935961   0.833631699051   0.3714660755728
H12   H     0.4621656234782   0.92084421802332   0.6285339244272
C1   C     0.8072719650799   0.8757120381747   0.4524687563325
C2   C     0.4232432818421   0.3548032087473   0.5475312436675
C3   C     0.1242879618253   0.5767567181579   0.93155992690521
C4   C     0.6451967912527   0.1927280349201   6.84400730947902E-02
C5   C     0.6787571273947   0.8737071679756   0.3103810776186
C6   C     0.5633260903569   0.3683760497761   0.6896189223814
C7   C     0.1262928320244   0.4366739096431   0.8050499594192
C8   C     0.6316239502239   0.3212428726053   0.1949500405808
C9   C     0.8838966433914   0.7703529524977   0.4189084859504
C10   C     0.3514444665473   0.464988157441   0.5810915140496
C11   C     0.2296470475023   0.6485555334527   0.1135436908936
C12   C     0.535011842559   0.1161033566086   0.8864563091064
C13   C     6.82218942968301E-02   0.91076358483559   0.729907213906
C14   C     0.1808563709296   0.3383146803908   0.270092786094
C15   C     0.08923641516441   0.8191436290704   0.1574583094612
C16   C     0.6616853196092   0.93177810570317   0.8425416905388
C17   C     0.8651571502671   0.98986726757574   0.628563460519
C18   C     0.3613038070568   0.2365936897481   0.371436539481
C19   C     1.01327324242598E-02   0.6386961929432   0.8752898826914
C20   C     0.7634063102519   0.1348428497329   0.1247101173086
C21   C     0.2255582694654   0.4549676647415   0.4401618082068
C22   C     0.01480585653474   0.7853964612586   0.5598381917932
C23   C     0.5450323352585   0.98519414346526   0.7705906047239
C24   C     0.2146035387414   0.7744417305346   0.2294093952761
N1   N     0.6443903494511   4.05199623800927E-03   0.3237569041863
N2   N     0.6802950920517   0.3206334452648   0.6762430958137
N3   N     0.995948003761991   0.3197049079483   0.6403383532131
N4   N     0.6793665547352   0.3556096505489   0.3596616467869
N5   N     0.5183878176698   0.95234149386082   0.1588045686498
N6   N     0.793536925211   0.35958324902   0.8411954313502
N7   N     4.76585061391801E-02   0.206463074789   0.566046323809
N8   N     0.64041675098   0.4816121823302   0.433953676191
N9   N     0.5767854042239   0.744968394773   0.1415260026707
N10   N     0.6034423921024   0.4352594015533   0.8584739973293
N11   N     0.255031605227   0.3965576078976   0.8318170094509
N12   N     0.5647405984467   0.4232145957761   0.1681829905491
N13   N     0.4789528838069   0.7982319715671   4.95984649790001E-02
N14   N     0.7486335065881   0.4293544188279   0.950401535021
N15   N     0.2017680284329   0.2513664934119   0.6807209122398
N16   N     0.5706455811721   0.5210471161931   0.3192790877602
N17   N     0.995331659233772   8.98546165120923E-03   0.7647104627015
N18   N     0.2442749989497   0.2306211965323   0.2352895372985
N19   N     0.991014538348791   0.7557250010503   0.98634619758256
N20   N     0.7693788034677   4.66834076622819E-03   1.36538024174401E-02
Cl1   Cl     0.2434343816246   0.94330583295235   0.90621895663216
Cl2   Cl     3.70868763201899E-02   0.3372154249924   9.37810433678401E-02
Cl3   Cl     5.66941670476499E-02   0.96291312367981   0.3001285486722
Cl4   Cl     0.6627845750076   0.7565656183754   0.6998714513278
Zn1   Zn     0.75   0.25   0.5
Zn2   Zn     0.5   0.5   2.6069641237414E-16
#END
