data_CSD_CIF_MOLDRAW
_audit_creation_date 11-27-2023
_audit_creation_method MOLDRAW
_chemical_formula_sum 'H8 C24 N20 Cl8 Zn2'
_chemical_formula_moiety
;
H8 C24 N20 Cl8 Zn2
;
loop_
_publ_author_name
Ugliengo
_cell_volume 792.799
_exptl_crystal_density_diffrn ?
_diffrn_ambient_temperature ?
_refine_ls_R_factor_gt ?
_refine_ls_wR_factor_gt ?
_symmetry_space_group_name_H-M 'P 1'
_symmetry_cell_setting null
_symmetry_Int_Tables_number 1
loop_
_symmetry_equiv_pos_site_id
_symmetry_equiv_pos_as_xyz
1 x,y,z
_cell_length_a  10.2235175
_cell_length_b  10.2235175
_cell_length_c  10.2235175
_cell_angle_alpha  116.234514
_cell_angle_beta  116.234514
_cell_angle_gamma  96.655969
_cell_formula_units_Z 1
loop_
_atom_type_symbol
_atom_type_radius_bond
H  .38
C  .77
N  .75
Cl .99
Zn 1.35
loop_
_atom_site_label
_atom_site_type_symbol
_atom_site_fract_x
_atom_site_fract_y
_atom_site_fract_z
H1   H     0.1531642659264   0.8060853069716   0.6447228355524
H2   H     0.161362471419199   0.508441430374   0.3552771644476
H3   H     0.193914693028399   0.8386375285808   0.3470789589548
H4   H     0.491558569626   0.8468357340736   0.6529210410452
H5   H     0.1882241021896   0.01562461314546   0.9268971857423
H6   H     8.87274274031595E-02   0.2613269164473   7.31028142576998E-02
H7   H     0.98437538685454   0.91127257259684   0.1725994890441
H8   H     0.738673083552699   0.8117758978104   0.8274005109559
C1   C     0.823309133872299   0.8864809265368   0.4780180948762
C2   C     0.4084628316605   0.3452910389961   0.5219819051238
C3   C     0.1135190734632   0.5915371683395   0.93682820733557
C4   C     0.6547089610039   0.1766908661277   6.31717926644298E-02
C5   C     0.701336237625399   0.8748857465424   0.321767335439
C6   C     0.553118411103399   0.3795689021864   0.678232664561
C7   C     0.125114253457599   0.4468815888966   0.826450491083
C8   C     0.6204310978136   0.2986637623746   0.173549508917
C9   C     0.933922150493039   0.8151872047721   0.4836754560832
C10   C     0.3315117486889   0.4502466944099   0.5163245439168
C11   C     0.184812795227899   0.6684882513111   0.118734945721
C12   C     0.549753305590099   0.06607784950696   0.881265054279
C13   C     8.62649229840694E-02   0.97367069832422   0.7974002938485
C14   C     0.176270404475699   0.2888646291356   0.2025997061515
C15   C     2.63293016757794E-02   0.8237295955243   0.1125942246598
C16   C     0.711135370864399   0.91373507701593   0.8874057753402
C17   C     0.850356943433399   0.98876987480997   0.6437023235185
C18   C     0.3450675512915   0.2066546199149   0.3562976764815
C19   C     1.12301251900294E-02   0.6549324487085   0.8615870686235
C20   C     0.793345380085099   0.1496430565666   0.1384129313765
C21   C     0.2182057886651   0.4249976883204   0.3572975344617
C22   C     6.77001538587196E-02   0.8609082542034   0.6427024655383
C23   C     0.575002311679599   0.93229984614128   0.7932081003447
C24   C     0.1390917457966   0.7817942113349   0.2067918996553
N1   N     0.685559424621599   6.23609100031605E-03   0.3229174563677
N2   N     0.6833186346326   0.3626419682539   0.6770825436323
N3   N     0.993763908999684   0.3166813653674   0.6793233336213
N4   N     0.6373580317461   0.3144405753784   0.3206766663787
N5   N     0.564402827641699   0.95388471082706   0.157306686553
N6   N     0.7965780242741   0.4070961410888   0.842693313447
N7   N     4.61152891729394E-02   0.2034219757259   0.6105181168147
N8   N     0.5929038589112   0.4355971723583   0.3894818831853
N9   N     0.592147825156   0.7441675649938   0.1583123013777
N10   N     0.5858552636162   0.4338355237783   0.8416876986223
N11   N     0.2558324350062   0.4141447363838   0.8479802601622
N12   N     0.5661644762217   0.407852174844   0.1520197398378
N13   N     0.507834699526599   0.7986923352529   5.99539244003797E-02
N14   N     0.7387384108525   0.4478807751262   0.94004607559962
N15   N     0.201307664747099   0.2612615891475   0.7091423642737
N16   N     0.5521192248738   0.4921653004734   0.2908576357263
N17   N     0.974553288670319   3.25224262927701E-02   0.7964443561805
N18   N     0.236078070112299   0.1781089324898   0.2035556438195
N19   N     0.967477573707229   0.7639219298877   0.94203086237755
N20   N     0.8218910675102   2.54467113296801E-02   5.79691376224499E-02
Cl1   Cl     0.90048856280487   0.665312001068   0.2901121663493
Cl2   Cl     0.3751998347186   0.6103763964555   0.7098878336507
Cl3   Cl     0.334687998931999   0.6248001652814   0.2351765617369
Cl4   Cl     0.389623603544499   0.09951143719513   0.7648234382631
Cl5   Cl     0.7064538697264   6.22501414034301E-02   0.6501477837367
Cl6   Cl     0.4121023576667   5.63060859896801E-02   0.3498522162633
Cl7   Cl     0.93774985859657   0.5878976423333   0.644203728323
Cl8   Cl     0.94369391401032   0.2935461302736   0.355796271677
Zn1   Zn     0.75   0.25   0.5
Zn2   Zn     0.5   0.5   -1.94505869743899E-16
#END
