data_CSD_CIF_MOLDRAW
_audit_creation_date 11-27-2023
_audit_creation_method MOLDRAW
_chemical_formula_sum 'H8 C24 N20 Cl8 Zn2'
_chemical_formula_moiety
;
H8 C24 N20 Cl8 Zn2
;
loop_
_publ_author_name
Ugliengo
_cell_volume 749.8457
_exptl_crystal_density_diffrn ?
_diffrn_ambient_temperature ?
_refine_ls_R_factor_gt ?
_refine_ls_wR_factor_gt ?
_symmetry_space_group_name_H-M 'P 1'
_symmetry_cell_setting null
_symmetry_Int_Tables_number 1
loop_
_symmetry_equiv_pos_site_id
_symmetry_equiv_pos_as_xyz
1 x,y,z
_cell_length_a  9.9781251
_cell_length_b  9.9781251
_cell_length_c  9.9781251
_cell_angle_alpha  114.339706
_cell_angle_beta  114.339706
_cell_angle_gamma  100.119878
_cell_formula_units_Z 1
loop_
_atom_type_symbol
_atom_type_radius_bond
H  .38
C  .77
N  .75
Cl .99
Zn 1.35
loop_
_atom_site_label
_atom_site_type_symbol
_atom_site_fract_x
_atom_site_fract_y
_atom_site_fract_z
H1   H     0.740800742027099   7.16781559565799E-02   0.632891766869299
H2   H     0.438786389087299   0.1079089751579   0.3671082331307
H3   H     0.928321844043419   0.5612136109127   0.6691225860705
H4   H     0.892091024842099   0.2591992579729   0.3308774139295
H5   H     0.145195223805299   1.98717939995899E-02   0.925322432634649
H6   H     9.45493613649394E-02   0.2198727911707   7.46775673653497E-02
H7   H     0.980128206000409   0.90545063863506   0.1253234298058
H8   H     0.780127208829299   0.8548047761947   0.874676570194199
C1   C     0.799695990259299   0.8997583055081   0.4730520038969
C2   C     0.426706301611199   0.3266439863624   0.5269479961031
C3   C     0.100241694491899   0.5732936983888   0.8999376847512
C4   C     0.673356013637599   0.2003040097407   0.1000623152488
C5   C     0.676458019595199   0.8803615164446   0.3134814011867
C6   C     0.566880115257899   0.3629766184085   0.6865185988133
C7   C     0.119638483555399   0.4331198847421   0.7960965031506
C8   C     0.637023381591499   0.3235419804048   0.2039034968494
C9   C     0.904478471736979   0.821521102853   0.4811558073627
C10   C     0.340365295490299   0.4233226643743   0.5188441926373
C11   C     0.178478897146999   0.6596347045097   8.29573688840097E-02
C12   C     0.576677335625699   9.55215282630199E-02   0.91704263111599
C13   C     4.62981195797595E-02   0.98437706172049   0.7966996948444
C14   C     0.187677366876   0.2495984247353   0.2033003051556
C15   C     1.56229382795094E-02   0.812322633124   6.19210578592697E-02
C16   C     0.750401575264699   0.95370188042024   0.93807894214073
C17   C     0.824329621953799   1.42991665966599E-02   0.6329981089759
C18   C     0.381301057620799   0.1913315129779   0.3670018910241
C19   C     0.985700833403339   0.6186989423792   0.8100304553571
C20   C     0.808668487022099   0.1756703780462   0.1899695446429
C21   C     0.218278753208499   0.3822526587745   0.3544635535594
C22   C     2.77891052150496E-02   0.8638151996491   0.645536446440599
C23   C     0.617747341225499   0.97221089478495   0.836026094434099
C24   C     0.136184800350899   0.7817212467915   0.1639739055659
N1   N     0.640008922208499   7.29652672020292E-03   0.3197852060754
N2   N     0.687511320644799   0.3202237161331   0.680214793924599
N3   N     0.992703473279796   0.3124886793552   0.6327123954883
N4   N     0.679776283866899   0.3599910777915   0.3672876045117
N5   N     0.516434438043499   0.9528762158485   0.1544234251186
N6   N     0.798452790729899   0.3620110129248   0.8455765748814
N7   N     4.71237841514994E-02   0.2015472092701   0.563558222195
N8   N     0.637988987075199   0.4835655619565   0.436441777805
N9   N     0.579222125873999   0.7497357381883   0.1463021845644
N10   N     0.603433553623899   0.4329199413096   0.8536978154356
N11   N     0.250264261811699   0.3965664463761   0.8294863876857
N12   N     0.567080058690399   0.420777874126   0.1705136123143
N13   N     0.480384422399199   0.799607834333   5.12533147465597E-02
N14   N     0.748354519586499   0.4291311076527   0.94874668525344
N15   N     0.200392165666999   0.2516454804135   0.6807765880662
N16   N     0.570868892347299   0.5196155776008   0.3192234119338
N17   N     0.945001621594599   5.78803493039699E-02   0.7900738538077
N18   N     0.267806495496199   0.1549277677869   0.2099261461923
N19   N     0.942119650696029   0.7321935045038   0.8871212722906
N20   N     0.845072232213099   5.49983784053999E-02   0.1128787277094
Cl1   Cl     0.881067019135099   0.6776629853779   0.2918125605631
Cl2   Cl     0.385850424814899   0.5892544585721   0.7081874394369
Cl3   Cl     0.322337014622099   0.6141495751851   0.2034040337572
Cl4   Cl     0.410745541427899   0.1189329808649   0.796595966242799
Cl5   Cl     0.158844163373099   0.7714157687666   0.6694966380059
Cl6   Cl     0.101919130760699   0.4893475253672   0.3305033619941
Cl7   Cl     0.2285842312334   0.8980808692393   0.3874283946065
Cl8   Cl     0.510652474632799   0.8411558366269   0.6125716053935
Zn1   Zn     0.749999999999999   0.25   0.5
Zn2   Zn     0.499999999999999   0.5   -2.86229373536173E-16
#END
