data_CSD_CIF_MOLDRAW
_audit_creation_date 11-27-2023
_audit_creation_method MOLDRAW
_chemical_formula_sum 'H8 C24 N20 Cl8 Zn2'
_chemical_formula_moiety
;
H8 C24 N20 Cl8 Zn2
;
loop_
_publ_author_name
Ugliengo
_cell_volume 755.0968
_exptl_crystal_density_diffrn ?
_diffrn_ambient_temperature ?
_refine_ls_R_factor_gt ?
_refine_ls_wR_factor_gt ?
_symmetry_space_group_name_H-M 'P 1'
_symmetry_cell_setting null
_symmetry_Int_Tables_number 1
loop_
_symmetry_equiv_pos_site_id
_symmetry_equiv_pos_as_xyz
1 x,y,z
_cell_length_a  10.0029369
_cell_length_b  10.0029369
_cell_length_c  10.0029369
_cell_angle_alpha  114.400203
_cell_angle_beta  114.400203
_cell_angle_gamma  100.007942
_cell_formula_units_Z 1
loop_
_atom_type_symbol
_atom_type_radius_bond
H  .38
C  .77
N  .75
Cl .99
Zn 1.35
loop_
_atom_site_label
_atom_site_type_symbol
_atom_site_fract_x
_atom_site_fract_y
_atom_site_fract_z
H1   H     0.8423900581298   8.32731979225296E-02   0.6759112210445
H2   H     0.4073619768781   0.1664788370853   0.3240887789555
H3   H     0.91672680207747   0.5926380231219   0.7591168602072
H4   H     0.8335211629147   0.1576099418702   0.2408831397928
H5   H     0.1139973569061   0.7189867034752   0.5928060303498
H6   H     0.1261806731254   0.5211913265562   0.4071939696502
H7   H     0.2810132965248   0.8738193268746   0.3950106534309
H8   H     0.4788086734438   0.886002643093899   0.6049893465691
C1   C     0.8466207496204   0.8844539428521   0.4763124758779
C2   C     0.4081414669742   0.3703082737425   0.5236875241221
C3   C     0.1155460571479   0.591858533025799   0.96216680676829
C4   C     0.6296917262575   0.1533792503796   3.78331932317098E-02
C5   C     0.7132941287241   0.8776945955763   0.3341549587586
C6   C     0.5435396368176   0.3791391699655   0.6658450412414
C7   C     0.1223054044237   0.4564603631824   0.8355995331479
C8   C     0.6208608300345   0.2867058712759   0.1644004668521
C9   C     0.9275551042019   0.7818874637768   0.4577798577047
C10   C     0.3241076060722   0.4697752464973   0.5422201422953
C11   C     0.2181125362232   0.6758923939278   0.1456676404251
C12   C     0.5302247535027   7.24448957980996E-02   0.8543323595749
C13   C     0.09468847702746   0.92117225001061   0.7676322949436
C14   C     0.153539955067   0.3270561820839   0.2323677050564
C15   C     7.88277499893899E-02   0.846460044933   0.1735162270169
C16   C     0.6729438179161   0.90531152297254   0.8264837729831
C17   C     0.901405863039   1.70409592969661E-03   0.6497704818294
C18   C     0.3519336141003   0.2516353812096   0.3502295181706
C19   C     0.998295904070303   0.6480663858997   0.8997017671093
C20   C     0.7483646187904   9.85941369609996E-02   0.1002982328907
C21   C     0.193023822412   0.4463158930772   0.39623361499
C22   C     0.05008227808722   0.7967902074221   0.60376638501
C23   C     0.5536841069228   0.94991772191278   0.7467079293349
C24   C     0.2032097925779   0.806976177588   0.2532920706651
N1   N     0.6729139884956   5.78971014357661E-03   0.3568388924016
N2   N     0.648950817742   0.316075096094   0.6431611075984
N3   N     0.994210289856422   0.351049182258   0.6671242783521
N4   N     0.683924903906   0.3270860115044   0.3328757216479
N5   N     0.5336642805169   0.95311366883522   0.2037482570006
N6   N     0.7493654118346   0.3299160235163   0.7962517429994
N7   N     0.04688633116478   0.2506345881654   0.5805506116817
N8   N     0.6700839764837   0.4663357194831   0.4194493883183
N9   N     0.601761760679   0.7497377419096   0.1678744044198
N10   N     0.5818633374897   0.4338873562591   0.8321255955802
N11   N     0.2502622580904   0.4181366625103   0.8520240187694
N12   N     0.5661126437409   0.398238239321   0.1479759812306
N13   N     0.4917585963847   0.8013041822644   9.14563464324198E-02
N14   N     0.709847835832   0.4003022499523   0.90854365356758
N15   N     0.1986958177356   0.290152164168   0.6904544141203
N16   N     0.5996977500477   0.5082414036153   0.3095455858797
N17   N     2.37132939915301E-02   2.15889123960496E-02   0.7911462352424
N18   N     0.2304426771537   0.2325670587491   0.2088537647576
N19   N     0.97841108760395   0.7695573228463   2.12438159547564E-03
N20   N     0.7674329412509   0.976286706008469   0.997875618404524
Cl1   Cl     0.8820790569267   0.635504257004   0.2562328288244
Cl2   Cl     0.3792714281796   0.6258462281023   0.7437671711756
Cl3   Cl     0.364495742996   0.6207285718204   0.2465747999227
Cl4   Cl     0.3741537718977   0.1179209430733   0.7534252000773
Cl5   Cl     0.2573433741142   0.9467509562723   0.94853391016873
Cl6   Cl     0.998217046103569   0.3088094639455   5.14660898312697E-02
Cl7   Cl     0.0532490437277   1.78295389643063E-03   0.3105924178419
Cl8   Cl     0.6911905360545   0.7426566258858   0.6894075821581
Zn1   Zn     0.75   0.25   0.5
Zn2   Zn     0.5   0.5   -2.68068987147041E-16
#END
