data_CSD_CIF_MOLDRAW
_audit_creation_date 11-27-2023
_audit_creation_method MOLDRAW
_chemical_formula_sum 'H8 C24 N20 Cl8 Zn2'
_chemical_formula_moiety
;
H8 C24 N20 Cl8 Zn2
;
loop_
_publ_author_name
Ugliengo
_cell_volume 794.2899
_exptl_crystal_density_diffrn ?
_diffrn_ambient_temperature ?
_refine_ls_R_factor_gt ?
_refine_ls_wR_factor_gt ?
_symmetry_space_group_name_H-M 'P 1'
_symmetry_cell_setting null
_symmetry_Int_Tables_number 1
loop_
_symmetry_equiv_pos_site_id
_symmetry_equiv_pos_as_xyz
1 x,y,z
_cell_length_a  10.289135
_cell_length_b  10.289135
_cell_length_c  10.289135
_cell_angle_alpha  117.760362
_cell_angle_beta  117.760362
_cell_angle_gamma  93.925015
_cell_formula_units_Z 1
loop_
_atom_type_symbol
_atom_type_radius_bond
H  .38
C  .77
N  .75
Cl .99
Zn 1.35
loop_
_atom_site_label
_atom_site_type_symbol
_atom_site_fract_x
_atom_site_fract_y
_atom_site_fract_z
H1   H     0.931452566573681   0.7293710076541   0.3672798668307
H2   H     0.362091140823401   0.564172699743   0.6327201331693
H3   H     0.270628992345901   0.6379088591766   0.2020815589196
H4   H     0.435827300257001   6.85474334263203E-02   0.7979184410804
H5   H     0.169400498289401   0.996589041381339   0.94137253600953
H6   H     5.52165053718005E-02   0.2280279622799   5.86274639904704E-02
H7   H     3.41095861866175E-03   0.9447834946282   0.172811456908101
H8   H     0.771972037720101   0.8305995017106   0.8271885430919
C1   C     0.827286352925101   0.8839836142505   0.4810493924562
C2   C     0.402934221794201   0.3462369604688   0.5189506075438
C3   C     0.116016385749501   0.5970657782058   0.94330273867459
C4   C     0.653763039531201   0.1727136470749   5.66972613254104E-02
C5   C     0.708636773761801   0.8724614994371   0.3198617654962
C6   C     0.552599733940901   0.3887750082656   0.6801382345038
C7   C     0.127538500562901   0.4474002660591   0.8361752743247
C8   C     0.611224991734401   0.2913632262382   0.1638247256753
C9   C     0.940467454620011   0.8124658741046   0.4888956751481
C10   C     0.323570198956501   0.4515717794719   0.5111043248519
C11   C     0.187534125895401   0.6764298010435   0.1280015805154
C12   C     0.548428220528101   5.95325453799903E-02   0.8719984194846
C13   C     7.35985737209405E-02   0.96119319597923   0.8092785300658
C14   C     0.151914665913401   0.2643200436552   0.1907214699342
C15   C     3.88068040207707E-02   0.8480853340866   0.1124053777417
C16   C     0.735679956344801   0.92640142627906   0.8875946222583
C17   C     0.845720059128201   0.98653912388552   0.6438939555919
C18   C     0.342645168293701   0.2018261035363   0.3561060444081
C19   C     1.34608761144807E-02   0.6573548317063   0.8591809352427
C20   C     0.798173896463701   0.1542799408718   0.1408190647573
C21   C     0.199240313158201   0.4094686882422   0.343567010494
C22   C     6.59016777481907E-02   0.855673302664201   0.656432989506
C23   C     0.590531311757801   0.93409832225181   0.789771624916
C24   C     0.144326697335801   0.8007596868418   0.210228375084
N1   N     0.693735382796601   1.24184327513533E-03   0.3148848160766
N2   N     0.686357027198601   0.3788505667201   0.6851151839234
N3   N     0.998758156724866   0.3136429728014   0.6924935395215
N4   N     0.621149433279901   0.3062646172034   0.3075064604785
N5   N     0.578964610905201   0.94451791386594   0.1415868237276
N6   N     0.802931090138301   0.4373777871776   0.8584131762724
N7   N     5.54820861340605E-02   0.1970689098617   0.6344466970393
N8   N     0.562622212822401   0.4210353890948   0.3655533029607
N9   N     0.604034215707001   0.739857401394501   0.1546919653325
N10   N     0.585165436062001   0.4493422503745   0.8453080346675
N11   N     0.260142598605501   0.414834563938   0.8641768143125
N12   N     0.550657749625501   0.395965784293   0.1358231856875
N13   N     0.525280848250001   0.7891100971053   4.53757747476704E-02
N14   N     0.743734322357601   0.4799050735023   0.95462422525233
N15   N     0.210889902894701   0.2562656776424   0.7361707511447
N16   N     0.520094926497701   0.47471915175   0.2638292488553
N17   N     0.961655742692051   2.27073148491003E-02   0.800213453231
N18   N     0.222493861618101   0.1614422894611   0.199786546769
N19   N     0.977292685150901   0.7775061383819   0.93894842784295
N20   N     0.838557710538901   3.83442573079503E-02   6.10515721570504E-02
Cl1   Cl     0.713651398576601   8.12579114079403E-02   0.6513442197076
Cl2   Cl     0.429913691700301   6.23071788689503E-02   0.3486557802924
Cl3   Cl     0.918742088592061   0.5700863082997   0.6323934871686
Cl4   Cl     0.937692821131051   0.2863486014234   0.3676065128314
Cl5   Cl     0.222741193220901   0.7900689533561   0.698390079611
Cl6   Cl     9.16788737451106E-02   0.5243511136099   0.301609920389
Cl7   Cl     0.209931046643901   0.90832112625489   0.4326722398648
Cl8   Cl     0.475648886390101   0.7772588067791   0.5673277601352
Zn1   Zn     0.750000000000001   0.25   0.5
Zn2   Zn     0.500000000000001   0.5   4.11156568860815E-16
#END
