data_CSD_CIF_MOLDRAW
_audit_creation_date 11-27-2023
_audit_creation_method MOLDRAW
_chemical_formula_sum 'H8 C24 N20 Cl8 Zn2'
_chemical_formula_moiety
;
H8 C24 N20 Cl8 Zn2
;
loop_
_publ_author_name
Ugliengo
_cell_volume 778.1011
_exptl_crystal_density_diffrn ?
_diffrn_ambient_temperature ?
_refine_ls_R_factor_gt ?
_refine_ls_wR_factor_gt ?
_symmetry_space_group_name_H-M 'P 1'
_symmetry_cell_setting null
_symmetry_Int_Tables_number 1
loop_
_symmetry_equiv_pos_site_id
_symmetry_equiv_pos_as_xyz
1 x,y,z
_cell_length_a  10.1606158
_cell_length_b  10.1606158
_cell_length_c  10.1606158
_cell_angle_alpha  116.253642
_cell_angle_beta  116.253642
_cell_angle_gamma  96.621425
_cell_formula_units_Z 1
loop_
_atom_type_symbol
_atom_type_radius_bond
H  .38
C  .77
N  .75
Cl .99
Zn 1.35
loop_
_atom_site_label
_atom_site_type_symbol
_atom_site_fract_x
_atom_site_fract_y
_atom_site_fract_z
H1   H     0.870863969616999   0.696128135188799   0.277978767352899
H2   H     0.418149367835899   0.592885202264099   0.7220212326471
H3   H     0.303871864811199   0.581850632164099   0.1747358344283
H4   H     0.407114797735899   0.129136030382999   0.8252641655717
H5   H     0.114663443614799   0.740094749831899   0.5420049438746
H6   H     0.198089805957399   0.572658499740199   0.4579950561254
H7   H     0.259905250168099   0.801910194042599   0.374568693782899
H8   H     0.427341500259799   0.885336556385199   0.6254313062171
C1   C     0.807473510041399   0.865539326098699   0.4379416698845
C2   C     0.427597656214199   0.369531840156899   0.5620583301155
C3   C     0.134460673901299   0.572402343785799   0.941934183942649
C4   C     0.630468159843099   0.192526489958599   5.80658160573494E-02
C5   C     0.683878645743299   0.868319843040999   0.294982443709399
C6   C     0.573337399331599   0.388896202033999   0.7050175562906
C7   C     0.131680156958999   0.426662600668399   0.8155588027024
C8   C     0.611103797965999   0.316121354256699   0.184441197297599
C9   C     0.901492093415759   0.778518649615899   0.411303938669599
C10   C     0.367214710946299   0.490188154746099   0.5886960613304
C11   C     0.221481350384099   0.632785289053699   0.122973443799799
C12   C     0.509811845253899   9.85079065842394E-02   0.877026556200199
C13   C     7.36445943313193E-02   0.913238161672019   0.724867794137
C14   C     0.188370367534999   0.3487768001943   0.275132205863
C15   C     8.67618383279793E-02   0.811629632464999   0.160406432659299
C16   C     0.651223199805699   0.92635540566868   0.8395935673407
C17   C     0.851456529325899   0.96279893855237   0.6126022859981
C18   C     0.350196652554299   0.238854243327899   0.387397714001899
C19   C     3.72010614476292E-02   0.6498033474457   0.8886575907736
C20   C     0.761145756672099   0.148543470674099   0.111342409226399
C21   C     0.247112039989899   0.481180088724699   0.4436586927219
C22   C     3.75213960027893E-02   0.803453347268099   0.5563413072781
C23   C     0.518819911275299   0.96247860399721   0.7659319512653
C24   C     0.196546652731899   0.752887960010099   0.234068048734699
N1   N     0.666994404531299   1.57059339706146E-03   0.301222744758499
N2   N     0.700347848638599   0.365771659772899   0.698777255241499
N3   N     0.998429406602937   0.2996521513614   0.6654238111343
N4   N     0.634228340227099   0.333005595468699   0.334576188865699
N5   N     0.547286785592599   0.9505130251416   0.1334342386014
N6   N     0.8170787865402   0.413852546991299   0.8665657613986
N7   N     4.94869748583993E-02   0.182921213459799   0.596773760451
N8   N     0.586147453008699   0.452713214407399   0.403226239548999
N9   N     0.576672327642899   0.739068519534199   0.129593774823099
N10   N     0.609474744711099   0.447078552819799   0.8704062251769
N11   N     0.260931480465799   0.390525255288899   0.8376038081087
N12   N     0.552921447180199   0.423327672357099   0.162396191891299
N13   N     0.493304952118899   0.794121364528399   3.03106667716294E-02
N14   N     0.763810697756799   0.462994285347299   0.969689333228369
N15   N     0.205878635471599   0.236189302243199   0.699183587590499
N16   N     0.537005714652699   0.506695047881099   0.3008164124095
N17   N     0.979525755411479   0.98717608824085   0.7519339459454
N18   N     0.235242142295399   0.227591809466099   0.248066054054599
N19   N     1.28239117591492E-02   0.764757857704599   0.992349667170626
N20   N     0.772408190533899   2.04742445885194E-02   7.65033282937246E-03
Cl1   Cl     0.730158362365899   6.11281645589494E-02   0.652192605850599
Cl2   Cl     0.408935558708399   7.79657565153094E-02   0.347807394149399
Cl3   Cl     0.938871835441049   0.5910644412916   0.6690301978069
Cl4   Cl     0.922034243484689   0.2698416376341   0.330969802193099
Cl5   Cl     0.245822014214099   0.95200486293228   0.90857967520302
Cl6   Cl     4.34251877292493E-02   0.3372423390111   9.14203247969795E-02
Cl7   Cl     4.79951370677194E-02   0.956574812270749   0.2938171512818
Cl8   Cl     0.662757660988899   0.754177985785899   0.706182848718199
Zn1   Zn     0.749999999999999   0.249999999999999   0.5
Zn2   Zn     0.499999999999999   0.499999999999999   -5.49636291341526E-16
#END
