data_CSD_CIF_MOLDRAW
_audit_creation_date 03-25-2024
_audit_creation_method MOLDRAW
_chemical_formula_sum 'C48 N40 F32 Zn4'
_chemical_formula_moiety
;
C48 N40 F32 Zn4
;
loop_
_publ_author_name
Ugliengo
_cell_volume 1422.9623
_exptl_crystal_density_diffrn ?
_diffrn_ambient_temperature ?
_refine_ls_R_factor_gt ?
_refine_ls_wR_factor_gt ?
_symmetry_space_group_name_H-M 'P 1'
_symmetry_cell_setting tetragonal
_symmetry_Int_Tables_number 1
loop_
_symmetry_equiv_pos_site_id
_symmetry_equiv_pos_as_xyz
1 x,y,z
_cell_length_a  10.9064522
_cell_length_b  10.9064522
_cell_length_c  11.9626225
_cell_angle_alpha  90
_cell_angle_beta  90
_cell_angle_gamma  90
_cell_formula_units_Z 1
loop_
_atom_type_symbol
_atom_type_radius_bond
C  .77
N  .75
F  .71
Zn 1.35
loop_
_atom_site_label
_atom_site_type_symbol
_atom_site_fract_x
_atom_site_fract_y
_atom_site_fract_z
C1   C     0.26624   0.81463   0.38629
C2   C     0.25116   0.94668   0.37769
C3   C     0.17291   0.72845   0.36675
C4   C     0.31968   0.56746   0.37313
C5   C     0.38147   0.76139   0.40468
C6   C     0.80192   0.39648   0.35903
C7   C     0.73376   0.18537   0.38629
C8   C     0.74884   5.33199999999999E-02   0.37769
C9   C     0.82709   0.27155   0.36675
C10   C     0.68032   0.43254   0.37313
C11   C     0.61853   0.23861   0.40468
C12   C     0.19808   0.60352   0.35903
C13   C     0.81463   0.73376   0.61371
C14   C     0.94668   0.74884   0.62231
C15   C     0.72845   0.82709   0.63325
C16   C     0.56746   0.68032   0.62687
C17   C     0.76139   0.61853   0.59532
C18   C     0.39648   0.19808   0.64097
C19   C     0.18537   0.26624   0.61371
C20   C     5.33199999999999E-02   0.25116   0.62231
C21   C     0.27155   0.17291   0.63325
C22   C     0.43254   0.31968   0.62687
C23   C     0.23861   0.38147   0.59532
C24   C     0.60352   0.80192   0.64097
C25   C     0.76624   0.31463   0.88629
C26   C     0.75116   0.44668   0.87769
C27   C     0.67291   0.22845   0.86675
C28   C     0.81968   6.74599999999999E-02   0.87313
C29   C     0.88147   0.26139   0.90468
C30   C     0.30192   0.89648   0.85903
C31   C     0.23376   0.68537   0.88629
C32   C     0.24884   0.55332   0.87769
C33   C     0.32709   0.77155   0.86675
C34   C     0.18032   0.93254   0.87313
C35   C     0.11853   0.73861   0.90468
C36   C     0.69808   0.10352   0.85903
C37   C     0.31463   0.23376   0.11371
C38   C     0.44668   0.24884   0.12231
C39   C     0.22845   0.32709   0.13325
C40   C     0.06746   0.18032   0.12687
C41   C     0.26139   0.11853   9.53200000000004E-02
C42   C     0.89648   0.69808   0.14097
C43   C     0.68537   0.76624   0.11371
C44   C     0.55332   0.75116   0.12231
C45   C     0.77155   0.67291   0.13325
C46   C     0.93254   0.81968   0.12687
C47   C     0.73861   0.88147   9.53200000000003E-02
C48   C     0.10352   0.30192   0.14097
N1   N     0.33827   2.13499999999998E-02   0.33354
N2   N     0.29309   0.13879   0.33973
N3   N     0.1538   1.52899999999999E-02   0.40919
N4   N     0.18265   0.13547   0.38415
N5   N     0.40935   0.64428   0.39763
N6   N     0.66173   0.97865   0.33354
N7   N     0.70691   0.86121   0.33973
N8   N     0.8462   0.98471   0.409190000000001
N9   N     0.81735   0.86453   0.38415
N10   N     0.59065   0.35572   0.39763
N11   N     2.13499999999999E-02   0.66173   0.66646
N12   N     0.13879   0.70691   0.66027
N13   N     1.52899999999999E-02   0.8462   0.59081
N14   N     0.13547   0.81735   0.61585
N15   N     0.64428   0.59065   0.60237
N16   N     0.97865   0.33827   0.666460000000001
N17   N     0.86121   0.29309   0.66027
N18   N     0.98471   0.1538   0.59081
N19   N     0.86453   0.18265   0.61585
N20   N     0.35572   0.40935   0.60237
N21   N     0.83827   0.52135   0.83354
N22   N     0.79309   0.63879   0.839730000000001
N23   N     0.6538   0.51529   0.909190000000001
N24   N     0.68265   0.63547   0.88415
N25   N     0.90935   0.14428   0.89763
N26   N     0.16173   0.47865   0.83354
N27   N     0.20691   0.36121   0.83973
N28   N     0.3462   0.48471   0.909190000000001
N29   N     0.31735   0.36453   0.884150000000001
N30   N     9.06499999999999E-02   0.85572   0.897630000000001
N31   N     0.52135   0.16173   0.16646
N32   N     0.63879   0.20691   0.16027
N33   N     0.51529   0.3462   9.08100000000004E-02
N34   N     0.63547   0.31735   0.11585
N35   N     0.14428   9.06499999999999E-02   0.10237
N36   N     0.47865   0.83827   0.16646
N37   N     0.36121   0.79309   0.16027
N38   N     0.48471   0.6538   9.08100000000004E-02
N39   N     0.36453   0.68265   0.11585
N40   N     0.85572   0.90935   0.10237
F1   F     5.68799999999999E-02   0.76612   0.3541
F2   F     0.47505   0.83669   0.43216
F3   F     0.11077   0.52088   0.34014
F4   F     0.34621   0.44861   0.36235
F5   F     0.94312   0.23388   0.3541
F6   F     0.52495   0.16331   0.43216
F7   F     0.88923   0.47912   0.34014
F8   F     0.65379   0.55139   0.36235
F9   F     0.76612   0.94312   0.6459
F10   F     0.83669   0.52495   0.56784
F11   F     0.52088   0.88923   0.65986
F12   F     0.44861   0.65379   0.63765
F13   F     0.23388   5.68799999999998E-02   0.6459
F14   F     0.16331   0.47505   0.56784
F15   F     0.47912   0.11077   0.65986
F16   F     0.55139   0.34621   0.63765
F17   F     0.55688   0.26612   0.8541
F18   F     0.97505   0.33669   0.93216
F19   F     0.61077   2.08799999999998E-02   0.84014
F20   F     0.84621   0.94861   0.86235
F21   F     0.44312   0.73388   0.8541
F22   F     2.49499999999999E-02   0.66331   0.93216
F23   F     0.38923   0.97912   0.84014
F24   F     0.15379   5.13899999999999E-02   0.86235
F25   F     0.26612   0.44312   0.1459
F26   F     0.33669   2.49499999999998E-02   6.78400000000003E-02
F27   F     2.08799999999999E-02   0.38923   0.15986
F28   F     0.94861   0.15379   0.13765
F29   F     0.73388   0.55688   0.1459
F30   F     0.66331   0.97505   6.78400000000004E-02
F31   F     0.97912   0.61077   0.15986
F32   F     5.13899999999999E-02   0.84621   0.13765
Zn1   Zn     -6.09690130850028E-17   0.5   0.75
Zn2   Zn     -1.62872105597855E-16   -1.62872105597856E-16   0.5
Zn3   Zn     0.5   -1.62872105597856E-16   0.25
Zn4   Zn     0.5   0.5   3.34304561775791E-16
#END
