data_CSD_CIF_MOLDRAW
_audit_creation_date 03-25-2024
_audit_creation_method MOLDRAW
_chemical_formula_sum 'H8 C48 N40 F24 Zn4'
_chemical_formula_moiety
;
H8 C48 N40 F24 Zn4
;
loop_
_publ_author_name
Ugliengo
_cell_volume 1423.963
_exptl_crystal_density_diffrn ?
_diffrn_ambient_temperature ?
_refine_ls_R_factor_gt ?
_refine_ls_wR_factor_gt ?
_symmetry_space_group_name_H-M 'P 1'
_symmetry_cell_setting tetragonal
_symmetry_Int_Tables_number 1
loop_
_symmetry_equiv_pos_site_id
_symmetry_equiv_pos_as_xyz
1 x,y,z
_cell_length_a  10.7283744
_cell_length_b  10.7283744
_cell_length_c  12.3717419
_cell_angle_alpha  90
_cell_angle_beta  90
_cell_angle_gamma  90
_cell_formula_units_Z 1
loop_
_atom_type_symbol
_atom_type_radius_bond
H  .38
C  .77
N  .75
F  .71
Zn 1.35
loop_
_atom_site_label
_atom_site_type_symbol
_atom_site_fract_x
_atom_site_fract_y
_atom_site_fract_z
H1   H     9.75300000000004E-02   0.5322   0.34732
H2   H     0.90247   0.4678   0.34732
H3   H     0.5322   0.90247   0.65268
H4   H     0.4678   9.75300000000001E-02   0.65268
H5   H     0.59753   3.22000000000001E-02   0.84732
H6   H     0.40247   0.9678   0.84732
H7   H     3.22000000000004E-02   0.40247   0.15268
H8   H     0.9678   0.59753   0.15268
C1   C     0.25981   0.80655   0.38134
C2   C     0.25037   0.94183   0.37622
C3   C     0.15987   0.72417   0.36454
C4   C     0.29691   0.55243   0.3724
C5   C     0.37396   0.74539   0.39755
C6   C     0.82472   0.40426   0.35916
C7   C     0.74019   0.19345   0.38134
C8   C     0.74963   5.81700000000002E-02   0.37622
C9   C     0.84013   0.27583   0.36454
C10   C     0.70309   0.44757   0.3724
C11   C     0.62604   0.25461   0.39755
C12   C     0.17528   0.59574   0.35916
C13   C     0.80655   0.74019   0.61866
C14   C     0.94183   0.74963   0.62378
C15   C     0.72417   0.84013   0.63546
C16   C     0.55243   0.70309   0.6276
C17   C     0.74539   0.62604   0.60245
C18   C     0.40426   0.17528   0.64084
C19   C     0.19345   0.25981   0.61866
C20   C     5.81700000000004E-02   0.25037   0.62378
C21   C     0.27583   0.15987   0.63546
C22   C     0.44757   0.29691   0.6276
C23   C     0.25461   0.37396   0.60245
C24   C     0.59574   0.82472   0.64084
C25   C     0.75981   0.30655   0.88134
C26   C     0.75037   0.44183   0.87622
C27   C     0.65987   0.22417   0.86454
C28   C     0.79691   5.24300000000001E-02   0.8724
C29   C     0.87396   0.24539   0.89755
C30   C     0.32472   0.90426   0.85916
C31   C     0.24019   0.69345   0.88134
C32   C     0.24963   0.55817   0.87622
C33   C     0.34013   0.77583   0.86454
C34   C     0.20309   0.94757   0.8724
C35   C     0.12604   0.75461   0.89755
C36   C     0.67528   9.57400000000001E-02   0.85916
C37   C     0.30655   0.24019   0.11866
C38   C     0.44183   0.24963   0.12378
C39   C     0.22417   0.34013   0.13546
C40   C     5.24300000000003E-02   0.20309   0.1276
C41   C     0.24539   0.12604   0.10245
C42   C     0.90426   0.67528   0.14084
C43   C     0.69345   0.75981   0.11866
C44   C     0.55817   0.75037   0.12378
C45   C     0.77583   0.65987   0.13546
C46   C     0.94757   0.79691   0.1276
C47   C     0.75461   0.87396   0.10245
C48   C     9.57400000000004E-02   0.32472   0.14084
N1   N     0.33919   1.70400000000001E-02   0.33298
N2   N     0.29653   0.13738   0.34211
N3   N     0.15482   1.38100000000001E-02   0.41107
N4   N     0.18644   0.13576   0.38876
N5   N     0.39456   0.62449   0.39233
N6   N     0.66081   0.98296   0.33298
N7   N     0.70347   0.86262   0.34211
N8   N     0.84518   0.98619   0.41107
N9   N     0.81356   0.86424   0.38876
N10   N     0.60544   0.37551   0.39233
N11   N     1.70400000000004E-02   0.66081   0.66702
N12   N     0.13738   0.70347   0.65789
N13   N     1.38100000000003E-02   0.84518   0.58893
N14   N     0.13576   0.81356   0.61124
N15   N     0.62449   0.60544   0.60767
N16   N     0.98296   0.33919   0.66702
N17   N     0.86262   0.29653   0.65789
N18   N     0.98619   0.15482   0.58893
N19   N     0.86424   0.18644   0.61124
N20   N     0.37551   0.39456   0.60767
N21   N     0.83919   0.51704   0.83298
N22   N     0.79653   0.63738   0.84211
N23   N     0.65482   0.51381   0.91107
N24   N     0.68644   0.63576   0.88876
N25   N     0.89456   0.12449   0.89233
N26   N     0.16081   0.48296   0.83298
N27   N     0.20347   0.36262   0.84211
N28   N     0.34518   0.48619   0.91107
N29   N     0.31356   0.36424   0.88876
N30   N     0.10544   0.87551   0.89233
N31   N     0.51704   0.16081   0.16702
N32   N     0.63738   0.20347   0.15789
N33   N     0.51381   0.34518   8.89300000000004E-02
N34   N     0.63576   0.31356   0.11124
N35   N     0.12449   0.10544   0.10767
N36   N     0.48296   0.83919   0.16702
N37   N     0.36262   0.79653   0.15789
N38   N     0.48619   0.65482   8.89300000000003E-02
N39   N     0.36424   0.68644   0.11124
N40   N     0.87551   0.89456   0.10767
F1   F     4.47300000000004E-02   0.77117   0.3531
F2   F     0.47358   0.81643   0.42217
F3   F     0.3179   0.42968   0.36659
F4   F     0.95527   0.22883   0.3531
F5   F     0.52642   0.18357   0.42217
F6   F     0.6821   0.57032   0.36659
F7   F     0.77117   0.95527   0.6469
F8   F     0.81643   0.52642   0.57783
F9   F     0.42968   0.6821   0.63341
F10   F     0.22883   4.47300000000001E-02   0.6469
F11   F     0.18357   0.47358   0.57783
F12   F     0.57032   0.3179   0.63341
F13   F     0.54473   0.27117   0.8531
F14   F     0.97358   0.31643   0.92217
F15   F     0.8179   0.92968   0.86659
F16   F     0.45527   0.72883   0.8531
F17   F     2.64200000000003E-02   0.68357   0.92217
F18   F     0.1821   0.07032   0.86659
F19   F     0.27117   0.45527   0.1469
F20   F     0.31643   2.64200000000001E-02   7.78300000000003E-02
F21   F     0.92968   0.1821   0.13341
F22   F     0.72883   0.54473   0.1469
F23   F     0.68357   0.97358   7.78300000000004E-02
F24   F     7.03200000000003E-02   0.8179   0.13341
Zn1   Zn     3.65135591483335E-16   0.5   0.75
Zn2   Zn     3.31151165645339E-16   8.27877914113349E-17   0.5
Zn3   Zn     0.5   8.27877914113349E-17   0.25
Zn4   Zn     0.5   0.5   3.46103967334121E-16
#END
