data_CSD_CIF_MOLDRAW
_audit_creation_date 02-13-2024
_audit_creation_method MOLDRAW
_chemical_formula_sum 'C48 N40 Cl32 Zn4'
_chemical_formula_moiety
;
C48 N40 Cl32 Zn4
;
loop_
_publ_author_name
Ugliengo
_cell_volume 1782.7663
_exptl_crystal_density_diffrn ?
_diffrn_ambient_temperature ?
_refine_ls_R_factor_gt ?
_refine_ls_wR_factor_gt ?
_symmetry_space_group_name_H-M 'P 1'
_symmetry_cell_setting tetragonal
_symmetry_Int_Tables_number 1
loop_
_symmetry_equiv_pos_site_id
_symmetry_equiv_pos_as_xyz
1 x,y,z
_cell_length_a  11.6467594
_cell_length_b  11.6467594
_cell_length_c  13.1426881
_cell_angle_alpha  90
_cell_angle_beta  90
_cell_angle_gamma  90
_cell_formula_units_Z 1
loop_
_atom_type_symbol
_atom_type_radius_bond
C  .77
N  .75
Cl .99
Zn 1.35
loop_
_atom_site_label
_atom_site_type_symbol
_atom_site_fract_x
_atom_site_fract_y
_atom_site_fract_z
C1   C     0.263890000000001   0.816809999999999   0.38519
C2   C     0.24039   0.93978   0.37354
C3   C     0.18041   0.72922   0.37419
C4   C     0.33017   0.585779999999999   0.37703
C5   C     0.37688   0.774899999999999   0.39748
C6   C     0.78605   0.386459999999999   0.366530000000001
C7   C     0.736110000000001   0.183189999999999   0.38519
C8   C     0.759610000000001   6.02199999999995E-02   0.37354
C9   C     0.81959   0.27078   0.37419
C10   C     0.66983   0.41422   0.37703
C11   C     0.62312   0.225099999999999   0.39748
C12   C     0.21395   0.613539999999999   0.36653
C13   C     0.816810000000001   0.736109999999999   0.61481
C14   C     0.93978   0.759609999999999   0.62646
C15   C     0.72922   0.819589999999999   0.625810000000001
C16   C     0.58578   0.669829999999999   0.62297
C17   C     0.7749   0.623119999999999   0.60252
C18   C     0.386460000000001   0.21395   0.63347
C19   C     0.18319   0.26389   0.614810000000001
C20   C     6.02200000000004E-02   0.24039   0.62646
C21   C     0.27078   0.180409999999999   0.625810000000001
C22   C     0.41422   0.330169999999999   0.622970000000001
C23   C     0.2251   0.376879999999999   0.602520000000001
C24   C     0.61354   0.786049999999999   0.63347
C25   C     0.763890000000001   0.316809999999999   0.885190000000001
C26   C     0.740390000000001   0.439779999999999   0.873540000000001
C27   C     0.68041   0.229219999999999   0.87419
C28   C     0.830170000000001   8.57799999999989E-02   0.877030000000001
C29   C     0.876880000000001   0.274899999999998   0.897480000000001
C30   C     0.28605   0.88646   0.86653
C31   C     0.23611   0.683189999999999   0.885190000000001
C32   C     0.25961   0.56022   0.87354
C33   C     0.31959   0.770779999999999   0.87419
C34   C     0.16983   0.914219999999999   0.877030000000001
C35   C     0.12312   0.7251   0.89748
C36   C     0.71395   0.11354   0.866530000000001
C37   C     0.316810000000001   0.236109999999999   0.11481
C38   C     0.439780000000001   0.25961   0.126460000000001
C39   C     0.229220000000001   0.31959   0.125810000000001
C40   C     8.57800000000004E-02   0.16983   0.12297
C41   C     0.2749   0.12312   0.102520000000001
C42   C     0.886460000000001   0.713949999999999   0.133470000000001
C43   C     0.68319   0.763889999999999   0.114810000000001
C44   C     0.560220000000001   0.740389999999999   0.126460000000001
C45   C     0.770780000000001   0.68041   0.12581
C46   C     0.91422   0.830169999999999   0.12297
C47   C     0.725100000000001   0.876879999999999   0.10252
C48   C     0.11354   0.28605   0.13347
N1   N     0.314820000000001   9.97999999999963E-03   0.322820000000001
N2   N     0.268570000000001   0.11813   0.326870000000001
N3   N     0.148810000000001   2.77999999999976E-03   0.4073
N4   N     0.17025   0.1141   0.37714
N5   N     0.40797   0.66612   0.39456
N6   N     0.68518   0.990019999999999   0.32282
N7   N     0.73143   0.881869999999999   0.32687
N8   N     0.85119   0.997219999999999   0.4073
N9   N     0.82975   0.885899999999999   0.37714
N10   N     0.59203   0.333879999999999   0.394560000000001
N11   N     9.9800000000006E-03   0.685179999999999   0.67718
N12   N     0.11813   0.731429999999999   0.673130000000001
N13   N     2.77999999999963E-03   0.851189999999999   0.5927
N14   N     0.1141   0.829749999999999   0.622860000000001
N15   N     0.66612   0.592029999999999   0.605440000000001
N16   N     0.99002   0.314819999999999   0.67718
N17   N     0.88187   0.268569999999999   0.67313
N18   N     0.99722   0.148809999999999   0.5927
N19   N     0.885900000000001   0.17025   0.622860000000001
N20   N     0.33388   0.407969999999999   0.60544
N21   N     0.81482   0.509979999999999   0.822820000000001
N22   N     0.76857   0.618129999999999   0.826870000000001
N23   N     0.64881   0.502779999999999   0.9073
N24   N     0.67025   0.614099999999999   0.87714
N25   N     0.907970000000001   0.166119999999999   0.89456
N26   N     0.18518   0.490019999999999   0.822820000000001
N27   N     0.23143   0.381869999999999   0.826870000000001
N28   N     0.35119   0.497219999999999   0.9073
N29   N     0.32975   0.385899999999999   0.87714
N30   N     9.20300000000011E-02   0.833879999999998   0.89456
N31   N     0.509980000000001   0.18518   0.17718
N32   N     0.61813   0.23143   0.17313
N33   N     0.502780000000001   0.35119   9.27000000000002E-02
N34   N     0.6141   0.32975   0.122860000000001
N35   N     0.166120000000001   9.20299999999998E-02   0.10544
N36   N     0.49002   0.814819999999999   0.17718
N37   N     0.38187   0.768569999999999   0.17313
N38   N     0.49722   0.64881   9.27000000000005E-02
N39   N     0.385900000000001   0.670249999999999   0.12286
N40   N     0.83388   0.90797   0.10544
Br1   Br     3.66200000000004E-02   0.763449999999999   0.37049
Br2   Br     0.49309   0.866289999999999   0.41825
Br3   Br     0.11983   0.50492   0.34613
Br4   Br     0.37294   0.44458   0.3689
Br5   Br     0.96338   0.236549999999999   0.37049
Br6   Br     0.506910000000001   0.133709999999999   0.41825
Br7   Br     0.880170000000001   0.495079999999999   0.34613
Br8   Br     0.62706   0.555419999999999   0.3689
Br9   H     0.76345   0.963379999999999   0.629510000000001
Br10  H     0.86629   0.506909999999999   0.581750000000001
Br11  H     0.50492   0.880169999999999   0.65387
Br12  H     0.44458   0.627059999999999   0.6311
Br13  H     0.236550000000001   0.03662   0.62951
Br14  H     0.13371   0.49309   0.58175
Br15  H     0.49508   0.11983   0.653870000000001
Br16  H     0.55542   0.372939999999999   0.6311
Br17  Br     0.53662   0.263449999999999   0.870490000000001
Br18  Br     0.99309   0.366289999999999   0.918250000000001
Br19  Br     0.61983   4.91999999999892E-03   0.846130000000001
Br20  Br     0.87294   0.944579999999998   0.8689
Br21  Br     0.46338   0.736549999999999   0.870490000000001
Br22  Br     6.90999999999967E-03   0.633709999999999   0.918250000000001
Br23  Br     0.38017   0.995079999999998   0.84613
Br24  Br     0.12706   5.54199999999996E-02   0.868900000000001
Br25  H     0.26345   0.46338   0.12951
Br26  H     0.366290000000001   6.91000000000037E-03   8.17500000000009E-02
Br27  H     4.92000000000052E-03   0.38017   0.15387
Br28  H     0.944580000000001   0.127059999999999   0.1311
Br29  H     0.73655   0.536619999999999   0.12951
Br30  H     0.63371   0.993089999999999   8.17500000000005E-02
Br31  H     0.995080000000001   0.619829999999999   0.153870000000001
Br32  H     5.54200000000004E-02   0.87294   0.1311
Zn1   Zn     8.075602832158E-16   0.5   0.75
Zn2   Zn     3.81298517021703E-16   -2.28779110213022E-16   0.500000000000001
Zn3   Zn     0.500000000000001   -7.62597034043406E-17   0.250000000000001
Zn4   Zn     0.500000000000001   0.499999999999999   -7.31265070821097E-16
#END
