data_CSD_CIF_MOLDRAW
_audit_creation_date 11-24-2023
_audit_creation_method MOLDRAW
_chemical_formula_sum 'H4 C24 N20 F12 Zn2'
_chemical_formula_moiety
;
H4 C24 N20 F12 Zn2
;
loop_
_publ_author_name
Ugliengo
_cell_volume 710.8352
_exptl_crystal_density_diffrn ?
_diffrn_ambient_temperature ?
_refine_ls_R_factor_gt ?
_refine_ls_wR_factor_gt ?
_symmetry_space_group_name_H-M 'P 1'
_symmetry_cell_setting null
_symmetry_Int_Tables_number 1
loop_
_symmetry_equiv_pos_site_id
_symmetry_equiv_pos_as_xyz
1 x,y,z
_cell_length_a  9.82446
_cell_length_b  9.82446
_cell_length_c  9.82446
_cell_angle_alpha  115.163459
_cell_angle_beta  115.163459
_cell_angle_gamma  98.603499
_cell_formula_units_Z 1
loop_
_atom_type_symbol
_atom_type_radius_bond
H  .38
C  .77
N  .75
F  .71
Zn 1.35
loop_
_atom_site_label
_atom_site_type_symbol
_atom_site_fract_x
_atom_site_fract_y
_atom_site_fract_z
H1   H     0.17188984982   0.996727136899152   0.91102982729317
H2   H     0.08569730960598   0.260860022526801   8.89701727068301E-02
H3   H     3.27286310084886E-03   0.914302690394021   0.1751627129209
H4   H     0.7391399774732   0.82811015018   0.8248372870791
C1   C     0.8007761773013   0.884690103838701   0.4599453558142
C2   C     0.4247447480246   0.340830821487201   0.5400546441858
C3   C     0.1153098961613   0.575255251975401   0.91608607346261
C4   C     0.6591691785128   0.199223822698701   8.39139265373901E-02
C5   C     0.6735637289203   0.874819597885301   0.3040156963966
C6   C     0.5708039014887   0.369548032523601   0.6959843036034
C7   C     0.1251804021147   0.429196098511301   0.7987441310349
C8   C     0.6304519674764   0.326436271079701   0.2012558689651
C9   C     0.91470833606583   0.814687110623001   0.459231006819
C10   C     0.355456103804   0.455477329246901   0.540768993181
C11   C     0.185312889377   0.644543896196001   0.1000212254428
C12   C     0.5445226707531   8.52916639341706E-02   0.8999787745572
C13   C     6.73603056376397E-02   0.961488297459681   0.7819031234507
C14   C     0.1795851740089   0.285457182186901   0.2180968765493
C15   C     0.03851170254032   0.820414825991101   0.105872008178
C16   C     0.7145428178131   0.93263969436236   0.894127991822
C17   C     0.8288218201349   0.984022797831811   0.6306445087273
C18   C     0.3533782891045   0.198177311407501   0.3693554912727
C19   C     1.59772021681899E-02   0.646621710895501   0.8447990223031
C20   C     0.8018226885925   0.171178179865101   0.1552009776969
C21   C     0.2322294386051   0.427871328703801   0.3792956431444
C22   C     4.85756855594498E-02   0.852933795460701   0.6207043568556
C23   C     0.5721286712962   0.95142431444055   0.8043581099013
C24   C     0.1470662045393   0.767770561394901   0.1956418900987
N1   N     0.6468122153066   8.1731953181176E-03   0.3103883931454
N2   N     0.6977848021728   0.336423822161201   0.6896116068546
N3   N     0.991826804681883   0.302215197827201   0.6386390199884
N4   N     0.6635761778388   0.353187784693401   0.3613609800116
N5   N     0.5189708091935   0.95448024760832   0.1418635295027
N6   N     0.8126167181056   0.377107279690801   0.8581364704973
N7   N     4.55197523916798E-02   0.187383281894401   0.5644905615852
N8   N     0.6228927203092   0.481029190806501   0.4355094384148
N9   N     0.5663590372614   0.7416684879662   0.1354565763623
N10   N     0.6062119116039   0.430902460899101   0.8645434236377
N11   N     0.2583315120338   0.393788088396101   0.8246905492952
N12   N     0.5690975391009   0.433640962738601   0.1753094507048
N13   N     0.4706255066966   0.794991735387701   3.66501173301402E-02
N14   N     0.7583416180576   0.433975389366501   0.96334988266986
N15   N     0.2050082646123   0.241658381942401   0.6756337713089
N16   N     0.5660246106335   0.5293744933034   0.3243662286911
N17   N     0.95495822795519   2.48911833420406E-02   0.7848041557988
N18   N     0.2400870275433   0.170154072156401   0.2151958442012
N19   N     0.97510881665796   0.759912972456701   0.93006704461316
N20   N     0.8298459278436   4.50417720448106E-02   6.99329553868401E-02
F1   F     0.8978757547126   0.714598273489301   0.3036392371127
F2   F     0.4109590363766   0.594236517599901   0.6963607628873
F3   F     0.2854017265107   0.589040963623401   0.1832774812233
F4   F     0.4057634824001   0.102124245287401   0.8167225187767
F5   F     0.7148076532243   4.33380542755906E-02   0.6375932455567
F6   F     0.4057448087189   7.72144076676706E-02   0.3624067544433
F7   F     0.95666194572441   0.594255191281101   0.6714695989487
F8   F     0.92278559233233   0.285192346775701   0.3285304010513
F9   F     0.1576930026891   0.786267635241301   0.6200597452921
F10   F     0.1662078899493   0.537633257397001   0.3799402547079
F11   F     0.2137323647587   0.833792110050701   0.3714253674478
F12   F     0.462366742603   0.842306997310901   0.6285746325522
Zn1   Zn     0.75   0.250000000000001   0.5
Zn2   Zn     0.5   0.500000000000001   9.68192540029555E-17
#END
