data_CSD_CIF_MOLDRAW
_audit_creation_date 11-24-2023
_audit_creation_method MOLDRAW
_chemical_formula_sum 'H4 C24 N20 F12 Zn2'
_chemical_formula_moiety
;
H4 C24 N20 F12 Zn2
;
loop_
_publ_author_name
Ugliengo
_cell_volume 711.9815
_exptl_crystal_density_diffrn ?
_diffrn_ambient_temperature ?
_refine_ls_R_factor_gt ?
_refine_ls_wR_factor_gt ?
_symmetry_space_group_name_H-M 'P 1'
_symmetry_cell_setting null
_symmetry_Int_Tables_number 1
loop_
_symmetry_equiv_pos_site_id
_symmetry_equiv_pos_as_xyz
1 x,y,z
_cell_length_a  9.788463
_cell_length_b  9.788463
_cell_length_c  9.788463
_cell_angle_alpha  113.538643
_cell_angle_beta  113.538643
_cell_angle_gamma  101.610944
_cell_formula_units_Z 1
loop_
_atom_type_symbol
_atom_type_radius_bond
H  .38
C  .77
N  .75
F  .71
Zn 1.35
loop_
_atom_site_label
_atom_site_type_symbol
_atom_site_fract_x
_atom_site_fract_y
_atom_site_fract_z
H1   H     0.120470457603801   0.750201263520101   0.565321253867801
H2   H     0.184880009652301   0.555149203736   0.4346787461322
H3   H     0.249798736479901   0.815119990347701   0.3702691940837
H4   H     0.444850796264001   0.879529542396201   0.629730805916301
C1   C     0.812110873143501   0.878470037352401   0.453265400724301
C2   C     0.4252046366281   0.358845472419201   0.5467345992757
C3   C     0.121529962647601   0.574795363371901   0.93364083579104
C4   C     0.641154527580801   0.187889126856501   6.63591642089606E-02
C5   C     0.681949689400001   0.8741439648922   0.3085392348019
C6   C     0.565604730090401   0.373410454598101   0.6914607651981
C7   C     0.125856035107801   0.4343952699096   0.8078057245078
C8   C     0.6265895454019   0.318050310600001   0.1921942754922
C9   C     0.911294386070571   0.795332392727601   0.435702523948001
C10   C     0.3596298687795   0.475591862122501   0.564297476052
C11   C     0.204667607272401   0.640370131220501   0.115961993343001
C12   C     0.524408137877501   8.87056139294305E-02   0.884038006657
C13   C     7.51686744181105E-02   0.924515497480071   0.7444792394675
C14   C     0.180036258012501   0.3306894349506   0.255520760532501
C15   C     7.54845025199307E-02   0.819963741987501   0.150653176938001
C16   C     0.669310565049401   0.924831325581891   0.849346823062001
C17   C     0.857063515428401   0.97641202954547   0.628567048498401
C18   C     0.347844981047101   0.228496466930001   0.3714329515016
C19   C     2.35879704545307E-02   0.6521550189529   0.8806514858829
C20   C     0.771503533070001   0.142936484571601   0.1193485141171
C21   C     0.236577637634601   0.4655649886053   0.4204608290852
C22   C     4.51041595201406E-02   0.816116808549401   0.579539170914801
C23   C     0.534435011394701   0.954895840479861   0.7710126490293
C24   C     0.183883191450601   0.7634223623654   0.228987350970701
N1   N     0.649980236922501   6.2087969288045E-03   0.3221523639415
N2   N     0.684056432987301   0.327827872981001   0.6778476360585
N3   N     0.993791203071197   0.3159435670127   0.6437714399937
N4   N     0.672172127019   0.3500197630775   0.3562285600063
N5   N     0.520512506731101   0.954416581008421   0.159148616218301
N6   N     0.795267964790101   0.3613638905128   0.8408513837817
N7   N     4.55834189915806E-02   0.2047320352099   0.5660959257226
N8   N     0.638636109487201   0.479487493268901   0.433904074277401
N9   N     0.575120916580501   0.743747065785301   0.141008463630201
N10   N     0.6027386021552   0.434112452950401   0.8589915363698
N11   N     0.256252934214701   0.397261397844801   0.8313738507952
N12   N     0.565887547049601   0.424879083419501   0.1686261492048
N13   N     0.475476984818301   0.7976803044   5.06794951857406E-02
N14   N     0.747000809214201   0.424797489632601   0.94932050481426
N15   N     0.2023196956   0.252999190785801   0.6777966804184
N16   N     0.575202510367401   0.524523015181701   0.3222033195816
N17   N     0.983184626315611   2.23206747958547E-03   0.7700723838742
N18   N     0.232159683605401   0.213112242441401   0.2299276161258
N19   N     0.997767932520416   0.7678403163946   0.98095255883603
N20   N     0.786887757558601   1.68153736843905E-02   1.90474411639705E-02
F1   F     0.875727043672301   0.691627588741   0.273554986294401
F2   F     0.4180726024466   0.6021720573779   0.7264450137056
F3   F     0.308372411259001   0.581927397553401   0.1840994549313
F4   F     0.3978279426221   0.1242729563277   0.8159005450687
F5   F     0.7613998933584   5.14072536826705E-02   0.6571557320637
F6   F     0.394251521619001   0.1042441612947   0.3428442679363
F7   F     0.948592746317331   0.605748478381001   0.7099926396757
F8   F     0.8957558387053   0.238600106641601   0.2900073603243
F9   F     0.203731470387601   0.951307229970641   0.8882239892511
F10   F     6.30832407195107E-02   0.3155074811364   0.111776010748901
F11   F     4.86927700293606E-02   0.93691675928049   0.2524242404169
F12   F     0.684492518863601   0.796268529612401   0.747575759583101
Zn1   Zn     0.750000000000001   0.250000000000001   0.5
Zn2   Zn     0.500000000000001   0.500000000000001   4.84096270014778E-16
#END
