data_CSD_CIF_MOLDRAW
_audit_creation_date 11-24-2023
_audit_creation_method MOLDRAW
_chemical_formula_sum 'H4 C24 N20 F12 Zn2'
_chemical_formula_moiety
;
H4 C24 N20 F12 Zn2
;
loop_
_publ_author_name
Ugliengo
_cell_volume 696.1572
_exptl_crystal_density_diffrn ?
_diffrn_ambient_temperature ?
_refine_ls_R_factor_gt ?
_refine_ls_wR_factor_gt ?
_symmetry_space_group_name_H-M 'P 1'
_symmetry_cell_setting null
_symmetry_Int_Tables_number 1
loop_
_symmetry_equiv_pos_site_id
_symmetry_equiv_pos_as_xyz
1 x,y,z
_cell_length_a  9.6853484
_cell_length_b  9.6853484
_cell_length_c  9.6853484
_cell_angle_alpha  111.780816
_cell_angle_beta  111.780816
_cell_angle_gamma  104.944669
_cell_formula_units_Z 1
loop_
_atom_type_symbol
_atom_type_radius_bond
H  .38
C  .77
N  .75
F  .71
Zn 1.35
loop_
_atom_site_label
_atom_site_type_symbol
_atom_site_fract_x
_atom_site_fract_y
_atom_site_fract_z
H1   H     0.7572894577996   4.80848046603704E-02   0.6406836875412
H2   H     0.4074011171192   0.1166057702585   0.3593163124588
H3   H     0.95191519533963   0.5925988828808   0.7092046531393
H4   H     0.8833942297415   0.2427105422004   0.2907953468607
C1   C     0.8021039816679   0.8864433058752   0.4550094239751
C2   C     0.4314338819001   0.3470945576928   0.5449905760249
C3   C     0.1135566941248   0.5685661180999   0.91566067579275
C4   C     0.6529054423072   0.1978960183321   8.43393242072501E-02
C5   C     0.6735964149952   0.8752593058567   0.3068413264009
C6   C     0.5684179794558   0.3667550885943   0.6931586735991
C7   C     0.1247406941433   0.4315820205442   0.7983371091385
C8   C     0.6332449114057   0.3264035850048   0.2016628908615
C9   C     0.90358021031264   0.8072535816814   0.4440392313781
C10   C     0.3632143503033   0.4595409789346   0.5559607686219
C11   C     0.1927464183186   0.6367856496967   0.09632662863127
C12   C     0.5404590210654   9.64197896873603E-02   0.90367337136873
C13   C     6.09560020948497E-02   0.95056250715435   0.7543766313962
C14   C     0.1961858757582   0.3065793706987   0.2456233686038
C15   C     4.94374928456497E-02   0.8038141242418   0.1103934949405
C16   C     0.6934206293013   0.93904399790515   0.8896065050595
C17   C     0.8367142383115   0.98954169188466   0.6230747210063
C18   C     0.3664669708783   0.2136395173052   0.3769252789937
C19   C     1.04583081153397E-02   0.6335330291217   0.8471725464269
C20   C     0.7863604826948   0.1632857616885   0.1528274535731
C21   C     0.2433861576681   0.4394945735681   0.4052996064241
C22   C     3.41949671440597E-02   0.8380865512441   0.5947003935759
C23   C     0.5605054264319   0.96580503285594   0.8038915841
C24   C     0.1619134487559   0.7566138423319   0.1961084159
N1   N     0.6333540771582   2.64192161414131E-03   0.3232198623505
N2   N     0.679422059263699   0.3101342148077   0.6767801376495
N3   N     0.997358078385859   0.3205779407363   0.6307121555441
N4   N     0.6898657851923   0.3666459228418   0.3692878444559
N5   N     0.5041701842305   0.94983231242217   0.1618559662806
N6   N     0.7879763461416   0.3423142179499   0.8381440337194
N7   N     5.01676875778297E-02   0.2120236538584   0.5543378718083
N8   N     0.6576857820501   0.4958298157695   0.4456621281917
N9   N     0.574275250751   0.7474642858423   0.1388963011907
N10   N     0.6085679846516   0.4353789495603   0.8611036988093
N11   N     0.2525357141577   0.3914320153484   0.8268109649087
N12   N     0.5646210504397   0.425724749249   0.1731890350913
N13   N     0.4697325048962   0.7980029903032   5.12793799785899E-02
N14   N     0.7467236103246   0.4184531249176   0.94872062002141
N15   N     0.2019970096968   0.2532763896754   0.671729514593
N16   N     0.5815468750824   0.5302674951038   0.328270485407
N17   N     0.96443637707658   2.22159697674203E-02   0.7689079953783
N18   N     0.2533079743891   0.1955283816983   0.2310920046217
N19   N     0.97778403023258   0.7466920256109   0.94222040730916
N20   N     0.8044716183017   3.55636229234203E-02   5.77795926908401E-02
F1   F     0.8755924156204   0.6995622534218   0.2894178398118
F2   F     0.4101444136101   0.5861745758087   0.7105821601882
F3   F     0.3004377465782   0.5898555863899   0.1760301621986
F4   F     0.4138254241913   0.1244075843796   0.8239698378014
F5   F     0.1311232267576   0.7623523564193   0.5890831906536
F6   F     0.1732691657656   0.542040036104   0.4109168093464
F7   F     0.2376476435807   0.8267308342344   0.3687708703384
F8   F     0.457959963896   0.8688767732424   0.6312291296616
F9   F     0.191322989309   0.98487814596089   0.8983491061663
F10   F     8.65290397945997E-02   0.2929738831427   0.1016508938337
F11   F     1.51218540391097E-02   0.9134709602054   0.2064448433481
F12   F     0.7070261168573   0.808677010691   0.7935551566519
Zn1   Zn     0.75   0.25   0.5
Zn2   Zn     0.5   0.5   4.43980789632814E-17
#END
