data_CSD_CIF_MOLDRAW
_audit_creation_date 11-24-2023
_audit_creation_method MOLDRAW
_chemical_formula_sum 'H4 C24 N20 F12 Zn2'
_chemical_formula_moiety
;
H4 C24 N20 F12 Zn2
;
loop_
_publ_author_name
Ugliengo
_cell_volume 709.0334
_exptl_crystal_density_diffrn ?
_diffrn_ambient_temperature ?
_refine_ls_R_factor_gt ?
_refine_ls_wR_factor_gt ?
_symmetry_space_group_name_H-M 'P 1'
_symmetry_cell_setting null
_symmetry_Int_Tables_number 1
loop_
_symmetry_equiv_pos_site_id
_symmetry_equiv_pos_as_xyz
1 x,y,z
_cell_length_a  9.7641281
_cell_length_b  9.7641281
_cell_length_c  9.7641281
_cell_angle_alpha  113.004621
_cell_angle_beta  113.004621
_cell_angle_gamma  102.614445
_cell_formula_units_Z 1
loop_
_atom_type_symbol
_atom_type_radius_bond
H  .38
C  .77
N  .75
F  .71
Zn 1.35
loop_
_atom_site_label
_atom_site_type_symbol
_atom_site_fract_x
_atom_site_fract_y
_atom_site_fract_z
H1   H     0.8827177583757   0.7239621307854   0.3044310824322
H2   H     0.4195310483532   0.578286675943499   0.6955689175678
H3   H     0.2760378692146   0.5804689516468   0.1587556275903
H4   H     0.4217133240565   0.1172822416243   0.8412443724097
C1   C     0.7894333743851   0.8745823895108   0.4417635596044
C2   C     0.4328188299064   0.3476698147807   0.5582364403956
C3   C     0.1254176104892   0.5671811700936   0.91485098487427
C4   C     0.6523301852193   0.2105666256149   0.08514901512573
C5   C     0.6663826211142   0.8717921875158   0.2946522281548
C6   C     0.5771399593609   0.3717303929594   0.7053477718452
C7   C     0.1282078124842   0.4228600406391   0.7945904335984
C8   C     0.6282696070406   0.3336173788858   0.2054095664016
C9   C     0.8965140033941   0.8010932387476   0.4297852246334
C10   C     0.3713080141141   0.4667287787606   0.5702147753666
C11   C     0.1989067612524   0.628691985885899   9.54207646464699E-02
C12   C     0.5332712212394   0.1034859966059   0.90457923535353
C13   C     5.08806284304903E-02   0.94431234517865   0.7448662917828
C14   C     0.1994460533958   0.3060143366477   0.2551337082172
C15   C     5.56876548213504E-02   0.8005539466042   0.1065682832518
C16   C     0.6939856633523   0.94911937156951   0.8934317167482
C17   C     0.8191675653434   0.96899678339792   0.6101019908676
C18   C     0.3588947925303   0.2090655744758   0.3898980091324
C19   C     3.10032166020803E-02   0.6411052074697   0.8501707819455
C20   C     0.7909344255242   0.1808324346566   0.1498292180545
C21   C     0.2521478180811   0.4437557069397   0.4161509710714
C22   C     2.76047358683604E-02   0.8359968470098   0.5838490289286
C23   C     0.5562442930603   0.97239526413164   0.8083921111414
C24   C     0.1640031529902   0.7478521819189   0.1916078888586
N1   N     0.6383847177638   4.78322141218855E-03   0.3056187255118
N2   N     0.6991644959004   0.332765992252   0.6943812744882
N3   N     0.995216778587811   0.3008355040996   0.6336014963516
N4   N     0.667234007748   0.3616152822362   0.3663985036484
N5   N     0.5180386332816   0.95478613579406   0.1392300284226
N6   N     0.8155561073715   0.378808604859   0.8607699715774
N7   N     4.52138642059404E-02   0.1844438926285   0.5632524974876
N8   N     0.621191395141   0.4819613667184   0.4367475025124
N9   N     0.5677270700048   0.7430735538816   0.1265102212865
N10   N     0.6165633325951   0.4412168487183   0.8734897787135
N11   N     0.2569264461184   0.3834366674049   0.8246535161232
N12   N     0.5587831512817   0.4322729299952   0.1753464838768
N13   N     0.4767806752043   0.7988047389545   0.03126853212881
N14   N     0.7675362068257   0.4455121430755   0.96873146787119
N15   N     0.2011952610455   0.2324637931743   0.6779759362499
N16   N     0.5544878569245   0.5232193247957   0.3220240637501
N17   N     0.94574285340794   5.83905609925559E-03   0.7573627804168
N18   N     0.2484762756825   0.1883800729911   0.2426372195832
N19   N     0.994160943900744   0.7515237243175   0.93990379730868
N20   N     0.8116199270089   5.42571465920596E-02   0.06009620269132
F1   F     0.7121931834158   3.17222023457296E-02   0.6267396703033
F2   F     0.4049825320424   8.54535131124396E-02   0.3732603296967
F3   F     0.96827779765427   0.5950174679576   0.68047098107
F4   F     0.91454648688756   0.2878068165842   0.31952901893
F5   F     0.1372244924772   0.7744004063632   0.5847657520926
F6   F     0.1896346542706   0.5524587403846   0.4152342479074
F7   F     0.2255995936368   0.8103653457294   0.3628240861141
F8   F     0.4475412596154   0.8627755075228   0.6371759138859
F9   F     0.1871685349239   0.98973952369939   0.8924548315559
F10   F     9.72846921435003E-02   0.2947137033681   0.1075451684441
F11   F     1.02604763006103E-02   0.9027153078565   0.1974290112246
F12   F     0.7052862966319   0.812831465076099   0.8025709887754
Zn1   Zn     0.75   0.25   0.5
Zn2   Zn     0.5   0.5   1
#END
