data_CSD_CIF_MOLDRAW
_audit_creation_date 11-24-2023
_audit_creation_method MOLDRAW
_chemical_formula_sum 'C24 N20 F16 Zn2'
_chemical_formula_moiety
;
C24 N20 F16 Zn2
;
loop_
_publ_author_name
Ugliengo
_cell_volume 711.4812
_exptl_crystal_density_diffrn ?
_diffrn_ambient_temperature ?
_refine_ls_R_factor_gt ?
_refine_ls_wR_factor_gt ?
_symmetry_space_group_name_H-M 'P 1'
_symmetry_cell_setting null
_symmetry_Int_Tables_number 1
loop_
_symmetry_equiv_pos_site_id
_symmetry_equiv_pos_as_xyz
1 x,y,z
_cell_length_a  9.7596841
_cell_length_b  9.7596841
_cell_length_c  9.7596841
_cell_angle_alpha  112.061171
_cell_angle_beta  112.061171
_cell_angle_gamma  104.406954
_cell_formula_units_Z 1
loop_
_atom_type_symbol
_atom_type_radius_bond
C  .77
N  .75
F  .71
Zn 1.35
loop_
_atom_site_label
_atom_site_type_symbol
_atom_site_fract_x
_atom_site_fract_y
_atom_site_fract_z
C1   C     0.7990782251442   0.8799441539293   0.4516096024325
C2   C     0.4283345514968   0.347468622711701   0.5483903975675
C3   C     0.1200558460707   0.571665448503201   0.91913407121494
C4   C     0.6525313772883   0.200921774855801   8.08659287850601E-02
C5   C     0.6756271441505   0.873469653567501   0.3044728063373
C6   C     0.5689968472301   0.3711543378131   0.6955271936627
C7   C     0.1265303464325   0.4310031527699   0.802157490583
C8   C     0.6288456621869   0.3243728558495   0.197842509417
C9   C     0.90479794991225   0.8061604245975   0.4444670961263
C10   C     0.3616933284712   0.460330853786001   0.5555329038737
C11   C     0.1938395754025   0.638306671528801   9.86375253147702E-02
C12   C     0.539669146214   9.52020500877504E-02   0.90136247468523
C13   C     0.05940540745292   0.94654807052549   0.7522183143064
C14   C     0.1943297562191   0.3071870931465   0.2477816856936
C15   C     5.34519294745101E-02   0.805670243780901   0.1128573369274
C16   C     0.6928129068535   0.940594592547081   0.8871426630726
C17   C     0.8339246382746   0.97678442762948   0.6200719125107
C18   C     0.3567125151188   0.213852725763901   0.3799280874893
C19   C     2.32155723705201E-02   0.643287484881201   0.8571402106452
C20   C     0.7861472742361   0.166075361725401   0.1428597893548
C21   C     0.2444834145216   0.4428848788211   0.40543584462
C22   C     3.74490342010801E-02   0.8390475699016   0.59456415538
C23   C     0.5571151211789   0.962550965798921   0.8015985357005
C24   C     0.1609524300984   0.755516585478401   0.1984014642995
N1   N     0.6451060518717   4.72882639686033E-03   0.3169152774952
N2   N     0.6878135489017   0.3281907743765   0.6830847225048
N3   N     0.99527117360314   0.312186451098301   0.6403772254748
N4   N     0.6718092256235   0.3548939481283   0.3596227745252
N5   N     0.5214789004992   0.953358625332221   0.154290329811
N6   N     0.7990682955212   0.3671885706882   0.845709670189
N7   N     4.66413746677801E-02   0.2009317044788   0.5681202751669
N8   N     0.6328114293118   0.478521099500801   0.4318797248331
N9   N     0.5755196029888   0.744610206846901   0.1385088594088
N10   N     0.606101347438   0.437010743580001   0.8614911405912
N11   N     0.2553897931531   0.393898652562001   0.8309093961419
N12   N     0.56298925642   0.4244803970112   0.1690906038581
N13   N     0.4803834715854   0.798500360425001   4.71861393642002E-02
N14   N     0.7513142210608   0.4331973322212   0.9528138606358
N15   N     0.201499639575   0.248685778939201   0.6818831111604
N16   N     0.5668026677788   0.5196165284146   0.3181168888396
N17   N     0.95808833163692   1.17153388926003E-02   0.7650688584902
N18   N     0.2466464804024   0.193019473146701   0.2349311415098
N19   N     0.9882846611074   0.753353519597601   0.94637299274432
N20   N     0.8069805268533   4.19116683630805E-02   5.36270072556802E-02
F1   F     0.8797762497163   0.702777062782601   0.2907592775456
F2   F     0.412017785237   0.5890169721707   0.7092407224544
F3   F     0.2972229372174   0.587982214763001   0.1769991869337
F4   F     0.4109830278293   0.1202237502837   0.8230008130663
F5   F     0.7311526523299   4.28837967413504E-02   0.6383609487106
F6   F     0.4045228480308   9.27917036193304E-02   0.3616390512894
F7   F     0.95711620325865   0.5954771519692   0.6882688555885
F8   F     0.90720829638067   0.2688473476701   0.3117311444115
F9   F     0.1389791292096   0.7706325707933   0.5898942353308
F10   F     0.1807383354625   0.549084893878801   0.4101057646692
F11   F     0.2293674292067   0.8192616645375   0.3683465584163
F12   F     0.4509151061212   0.8610208707904   0.6316534415837
F13   F     0.1890384463194   0.983864038279531   0.8976033233076
F14   F     0.08626071497196   0.291435123011901   0.1023966766924
F15   F     0.01613596172047   0.91373928502804   0.2051744080399
F16   F     0.7085648769881   0.8109615536806   0.7948255919601
Zn1   Zn     0.75   0.25   0.5
Zn2   Zn     0.5   0.5   1.89518539750466E-16
#END
