data_CSD_CIF_MOLDRAW
_audit_creation_date 11-21-2023
_audit_creation_method MOLDRAW
_chemical_formula_sum 'H12 C24 N20 F4 Zn2'
_chemical_formula_moiety
;
H12 C24 N20 F4 Zn2
;
loop_
_publ_author_name
Ugliengo
_cell_volume 695.1322
_exptl_crystal_density_diffrn ?
_diffrn_ambient_temperature ?
_refine_ls_R_factor_gt ?
_refine_ls_wR_factor_gt ?
_symmetry_space_group_name_H-M 'P 1'
_symmetry_cell_setting null
_symmetry_Int_Tables_number 1
loop_
_symmetry_equiv_pos_site_id
_symmetry_equiv_pos_as_xyz
1 x,y,z
_cell_length_a  9.8918114
_cell_length_b  9.8918114
_cell_length_c  9.8918114
_cell_angle_alpha  118.924034
_cell_angle_beta  118.924034
_cell_angle_gamma  91.873954
_cell_formula_units_Z 1
loop_
_atom_type_symbol
_atom_type_radius_bond
H  .38
C  .77
N  .75
F  .71
Zn 1.35
loop_
_atom_site_label
_atom_site_type_symbol
_atom_site_fract_x
_atom_site_fract_y
_atom_site_fract_z
H1   H     0.8900679987281   0.7037628716758   0.293433411578
H2   H     0.410329460097799   0.5966345871501   0.706566588422
H3   H     0.296237128324199   0.5896705399022   0.1863051270523
H4   H     0.403365412849899   0.1099320012719   0.8136948729477
H5   H     0.137816223710199   0.7569157858521   0.590211232606
H6   H     0.166704553246   0.5476049911041   0.409788767394
H7   H     0.243084214147899   0.833295446754   0.3809004378581
H8   H     0.4523950088959   0.8621837762898   0.6190995621419
H9   H     0.187655517331999   0.96854659793596   0.90269856128581
H10   H     6.58480366501493E-02   0.2849569560462   9.73014387141895E-02
H11   H     3.14534020640395E-02   0.93415196334985   0.219108919396
H12   H     0.715043043953799   0.812344482668   0.780891080604
C1   C     0.803011945894199   0.8748491789069   0.4439784571973
C2   C     0.430870721709599   0.3590334886969   0.5560215428027
C3   C     0.125150821093099   0.5691292782904   0.92816276698735
C4   C     0.640966511303099   0.1969880541058   7.18372330126496E-02
C5   C     0.667791666079399   0.8722944001381   0.2879754639046
C6   C     0.584318936233499   0.3798162021748   0.7120245360954
C7   C     0.127705599861899   0.4156810637665   0.7954972659413
C8   C     0.6201837978252   0.3322083339206   0.2045027340587
C9   C     0.912208013894469   0.790271516642   0.4305621203114
C10   C     0.359709396330599   0.4816458935831   0.5694378796886
C11   C     0.209728483357999   0.6402906036694   0.1219364972525
C12   C     0.518354106416899   8.77919861055296E-02   0.8780635027475
C13   C     7.86018617789193E-02   0.9358098373248   0.7690866162317
C14   C     0.166723221093099   0.3095152455473   0.2309133837683
C15   C     6.41901626751993E-02   0.8332767789069   0.1427920244541
C16   C     0.690484754452699   0.92139813822108   0.8572079755459
C17   C     0.8387258523028   0.97746376863553   0.6250242983429
C18   C     0.352439470292599   0.2137015539599   0.3749757016571
C19   C     2.25362313644693E-02   0.6475605297074   0.8612620836673
C20   C     0.786298446040099   0.1612741476972   0.1387379163327
C21   C     0.225640435027799   0.4555374073082   0.4050385646062
C22   C     5.04988427020394E-02   0.8206018704216   0.594961435393799
C23   C     0.544462592691799   0.94950115729796   0.7701030277196
C24   C     0.179398129578399   0.7743595649722   0.2298969722804
N1   N     0.642139767594499   8.13825849545363E-03   0.2939631433073
N2   N     0.714175115188199   0.3481766242872   0.7060368566927
N3   N     0.991861741504545   0.2858248848118   0.634001509099
N4   N     0.6518233757128   0.3578602324055   0.365998490901
N5   N     0.508299490577399   0.95508302164249   0.1185785230118
N6   N     0.836504498630699   0.3897209675655   0.8814214769882
N7   N     4.49169783575095E-02   0.1634955013693   0.5532164689349
N8   N     0.610279032434499   0.4917005094226   0.4467835310651
N9   N     0.552060528865699   0.7382400736299   0.114190581625
N10   N     0.624049492004999   0.4378699472407   0.885809418375
N11   N     0.261759926370099   0.375950507995   0.8138204552358
N12   N     0.5621300527593   0.4479394711343   0.1861795447642
N13   N     0.454253820122399   0.7928743525732   9.77676691228371E-03
N14   N     0.783097585660899   0.4444770532101   0.990223233087716
N15   N     0.207125647426799   0.2169024143391   0.6613794675491
N16   N     0.555522946789899   0.5457461798776   0.3386205324509
N17   N     0.97001567391459   1.17818562958796E-02   0.7821183010754
N18   N     0.229663555220499   0.1878973728392   0.2178816989246
N19   N     0.988218143704119   0.7703364447795   0.95823381761871
N20   N     0.8121026271608   2.99843260854096E-02   4.17661823812897E-02
F1   F     0.726535404642099   4.69708895799596E-02   0.6403692857343
F2   F     0.406601603845599   8.61661189077696E-02   0.3596307142657
F3   F     0.95302911042004   0.5933983961544   0.6795645150622
F4   F     0.91383388109223   0.2734645953579   0.3204354849378
Zn1   Zn     0.749999999999999   0.25   0.5
Zn2   Zn     0.499999999999999   0.5   1
#END
