data_CSD_CIF_MOLDRAW
_audit_creation_date 11-21-2023
_audit_creation_method MOLDRAW
_chemical_formula_sum 'H12 C24 N20 F4 Zn2'
_chemical_formula_moiety
;
H12 C24 N20 F4 Zn2
;
loop_
_publ_author_name
Ugliengo
_cell_volume 687.8632
_exptl_crystal_density_diffrn ?
_diffrn_ambient_temperature ?
_refine_ls_R_factor_gt ?
_refine_ls_wR_factor_gt ?
_symmetry_space_group_name_H-M 'P 1'
_symmetry_cell_setting null
_symmetry_Int_Tables_number 1
loop_
_symmetry_equiv_pos_site_id
_symmetry_equiv_pos_as_xyz
1 x,y,z
_cell_length_a  9.7167392
_cell_length_b  9.7167392
_cell_length_c  9.7167392
_cell_angle_alpha  115.13819
_cell_angle_beta  115.13819
_cell_angle_gamma  98.649769
_cell_formula_units_Z 1
loop_
_atom_type_symbol
_atom_type_radius_bond
H  .38
C  .77
N  .75
F  .71
Zn 1.35
loop_
_atom_site_label
_atom_site_type_symbol
_atom_site_fract_x
_atom_site_fract_y
_atom_site_fract_z
H1   H     0.890646398122301   0.7188355168602   0.3235950702642
H2   H     0.3952404465961   0.5670513278581   0.6764049297358
H3   H     0.281164483139801   0.6047595534039   0.171810881262
H4   H     0.432948672141901   0.1093536018777   0.828189118738
H5   H     0.739562161448501   5.38088925239101E-02   0.6397820334666
H6   H     0.414026859057301   9.97801279818701E-02   0.3602179665334
H7   H     0.946191107476091   0.5859731409427   0.6857532689246
H8   H     0.900219872018131   0.2604378385515   0.3142467310754
H9   H     0.168589938624001   0.996446347725725   0.91209984807854
H10   H     8.43464996471907E-02   0.2564900905454   8.79001519214602E-02
H11   H     3.55365227427556E-03   0.91565350035281   0.1721435908983
H12   H     0.743509909454601   0.831410061376   0.8278564091017
C1   C     0.797335720667201   0.8864863949212   0.459124446955
C2   C     0.427361947966301   0.3382112737122   0.540875553045
C3   C     0.1135136050788   0.5726380520337   0.91084932574596
C4   C     0.661788726287801   0.2026642793328   8.91506742540403E-02
C5   C     0.666819538703901   0.8750422405084   0.3014715556575
C6   C     0.573570684851001   0.3653479830465   0.6985284443425
C7   C     0.124957759491601   0.426429315149   0.7917772981955
C8   C     0.6346520169535   0.3331804612961   0.2082227018045
C9   C     0.904676452407071   0.8054582938703   0.4510106703967
C10   C     0.354447623473601   0.4536657820104   0.5489893296033
C11   C     0.194541706129701   0.6455523765264   9.92181585367903E-02
C12   C     0.546334217989601   9.53235475929301E-02   0.90078184146321
C13   C     6.27110819570606E-02   0.96195835838679   0.7818344700597
C14   C     0.1801238883271   0.2808766118973   0.2181655299403
C15   C     3.80416416132104E-02   0.8198761116729   0.1007527235703
C16   C     0.7191233881027   0.93728891804294   0.8992472764297
C17   C     0.825976732215201   0.995946621472328   0.6298346453973
C18   C     0.366111976075001   0.1961420868179   0.3701653546027
C19   C     4.05337852767244E-03   0.633888023925   0.8300301107429
C20   C     0.803857913182101   0.1740232677848   0.1699698892571
C21   C     0.229675693293501   0.4206290316343   0.3840425667625
C22   C     3.65864648718505E-02   0.845633126531   0.6159574332375
C23   C     0.579370968365701   0.96341353512815   0.8090466616592
C24   C     0.154366873469001   0.7703243067065   0.1909533383408
N1   N     0.629832732935301   6.19552161867409E-03   0.3089348154163
N2   N     0.697260706202401   0.320897917519   0.6910651845837
N3   N     0.993804478381327   0.3027392937976   0.6236372113167
N4   N     0.679102082481001   0.3701672670647   0.3763627886833
N5   N     0.503562626849101   0.95199247433862   0.1365774639419
N6   N     0.815415010396701   0.3669851629072   0.8634225360581
N7   N     4.80075256613804E-02   0.1845849896033   0.5515701525104
N8   N     0.6330148370928   0.4964373731509   0.4484298474896
N9   N     0.566470148262901   0.7427139216966   0.1287327545676
N10   N     0.613981167129001   0.4377373936953   0.8712672454324
N11   N     0.2572860783034   0.386018832871   0.8237562265662
N12   N     0.562262606304701   0.4335298517371   0.1762437734338
N13   N     0.466226480633   0.7940352760147   2.78849250451204E-02
N14   N     0.7661503509696   0.4383415555878   0.97211507495488
N15   N     0.2059647239853   0.2338496490304   0.6721912046183
N16   N     0.5616584444122   0.533773519367   0.3278087953817
N17   N     0.956126474932771   3.48657071669401E-02   0.7867842837565
N18   N     0.248081423410501   0.1693421911763   0.2132157162435
N19   N     0.965134292833061   0.7519185765895   0.92126076776582
N20   N     0.830657808823701   4.38735250672301E-02   7.87392322341802E-02
F1   F     0.146236415146601   0.7745885608803   0.6194371613777
F2   F     0.1551513995026   0.5267992537689   0.3805628386223
F3   F     0.225411439119701   0.8448486004974   0.3716478542663
F4   F     0.4732007462311   0.8537635848534   0.6283521457337
Zn1   Zn     0.750000000000001   0.25   0.5
Zn2   Zn     0.500000000000001   0.5   3.21194893598831E-16
#END
