data_CSD_CIF_MOLDRAW
_audit_creation_date 11-24-2023
_audit_creation_method MOLDRAW
_chemical_formula_sum 'H12 C24 N20 F4 Zn2'
_chemical_formula_moiety
;
H12 C24 N20 F4 Zn2
;
loop_
_publ_author_name
Ugliengo
_cell_volume 689.9826
_exptl_crystal_density_diffrn ?
_diffrn_ambient_temperature ?
_refine_ls_R_factor_gt ?
_refine_ls_wR_factor_gt ?
_symmetry_space_group_name_H-M 'P 1'
_symmetry_cell_setting null
_symmetry_Int_Tables_number 1
loop_
_symmetry_equiv_pos_site_id
_symmetry_equiv_pos_as_xyz
1 x,y,z
_cell_length_a  9.7113384
_cell_length_b  9.7113384
_cell_length_c  9.7113384
_cell_angle_alpha  114.579069
_cell_angle_beta  114.579069
_cell_angle_gamma  99.677529
_cell_formula_units_Z 1
loop_
_atom_type_symbol
_atom_type_radius_bond
H  .38
C  .77
N  .75
F  .71
Zn 1.35
loop_
_atom_site_label
_atom_site_type_symbol
_atom_site_fract_x
_atom_site_fract_y
_atom_site_fract_z
H1   H     0.8619688856017   0.6963243383287   0.2773966168157
H2   H     0.418927721513   0.584572268786   0.7226033831843
H3   H     0.3036756616713   0.581072278487   0.165644547273
H4   H     0.415427731214   0.1380311143983   0.834355452727
H5   H     0.790879552961   6.22589837805901E-02   0.6606238719951
H6   H     0.4016351117854   0.1302556809658   0.3393761280049
H7   H     0.93774101621941   0.5983648882146   0.7286205691804
H8   H     0.8697443190342   0.209120447039   0.2713794308196
H9   H     0.1043697121936   0.7273461507456   0.5437786485291
H10   H     0.1835675022164   0.5605910636645   0.4562213514709
H11   H     0.2726538492544   0.8164324977836   0.377023561448
H12   H     0.4394089363355   0.8956302878064   0.622976438552
C1   C     0.8067999166916   0.8784016890979   0.4470699327447
C2   C     0.4313317563532   0.3597299839469   0.5529300672553
C3   C     0.1215983109021   0.5686682436468   0.92839822759366
C4   C     0.6402700160531   0.1932000833084   7.16017724063401E-02
C5   C     0.6715420677165   0.8744335118258   0.3016441698584
C6   C     0.5727893419674   0.3698978978581   0.6983558301416
C7   C     0.1255664881742   0.4272106580326   0.7971085558908
C8   C     0.6301021021419   0.3284579322835   0.2028914441092
C9   C     0.8957230573009   0.7815591435031   0.414526720956
C10   C     0.367032422547   0.4811963363448   0.585473279044
C11   C     0.2184408564969   0.632967577453   0.1141639137978
C12   C     0.5188036636552   0.1042769426991   0.8858360862022
C13   C     7.16001714402904E-02   0.91500119853389   0.7327213563659
C14   C     0.182279842168   0.3388788150744   0.2672786436341
C15   C     8.49988014661103E-02   0.817720157832   0.1565989729064
C16   C     0.6611211849256   0.92839982855971   0.8434010270936
C17   C     0.8572451379351   0.98651510793273   0.6267106069718
C18   C     0.3598045009609   0.2305345309633   0.3732893930282
C19   C     1.34848920672705E-02   0.6401954990391   0.8707300300024
C20   C     0.7694654690367   0.1427548620649   0.1292699699976
C21   C     0.238170544589   0.4701966763921   0.4400082512614
C22   C     3.01884251307303E-02   0.7981622933276   0.5599917487386
C23   C     0.5298033236079   0.96981157486927   0.7679738681969
C24   C     0.2018377066724   0.761829455411   0.2320261318031
N1   N     0.6330203540283   5.6715043019571E-03   0.3168822782659
N2   N     0.688789226036   0.3161380757624   0.6831177217341
N3   N     0.994328495698043   0.311210773964   0.6273488497264
N4   N     0.6838619242376   0.3669796459717   0.3726511502736
N5   N     0.5006326107217   0.95372450934246   0.15010290692
N6   N     0.8036216024224   0.3505297038016   0.84989709308
N7   N     4.62754906575403E-02   0.1963783975776   0.5469081013792
N8   N     0.6494702961984   0.4993673892783   0.4530918986208
N9   N     0.5658245665852   0.7439004478657   0.1294134702182
N10   N     0.6144869776475   0.436411096367   0.8705865297818
N11   N     0.2560995521343   0.3855130223525   0.8219241187195
N12   N     0.563588903633   0.4341754334148   0.1780758812805
N13   N     0.4611958898896   0.7970812933219   3.70238250382601E-02
N14   N     0.7600574682836   0.4241720648514   0.96297617496174
N15   N     0.2029187066781   0.2399425317164   0.6641145965678
N16   N     0.5758279351486   0.5388041101104   0.3358854034322
N17   N     0.98942126322262   5.91029661437912E-03   0.767709515493
N18   N     0.2382007811214   0.2217117477297   0.232290484507
N19   N     0.994089703385621   0.7617992188786   0.98351096660824
N20   N     0.7782882522703   1.05787367773801E-02   1.64890333917602E-02
F1   F     0.2068808236895   0.93963028091174   0.8755780311152
F2   F     6.40522497965704E-02   0.3313027925743   0.1244219688848
F3   F     6.03697190882603E-02   0.93594775020343   0.2672505427777
F4   F     0.6686972074257   0.7931191763105   0.7327494572223
Zn1   Zn     0.75   0.25   0.5
Zn2   Zn     0.5   0.5   9.92858139453601E-17
#END
