data_CSD_CIF_MOLDRAW
_audit_creation_date 11-24-2023
_audit_creation_method MOLDRAW
_chemical_formula_sum 'H8 C24 N20 F8 Zn2'
_chemical_formula_moiety
;
H8 C24 N20 F8 Zn2
;
loop_
_publ_author_name
Ugliengo
_cell_volume 699.234
_exptl_crystal_density_diffrn ?
_diffrn_ambient_temperature ?
_refine_ls_R_factor_gt ?
_refine_ls_wR_factor_gt ?
_symmetry_space_group_name_H-M 'P 1'
_symmetry_cell_setting null
_symmetry_Int_Tables_number 1
loop_
_symmetry_equiv_pos_site_id
_symmetry_equiv_pos_as_xyz
1 x,y,z
_cell_length_a  9.9622894
_cell_length_b  9.9622894
_cell_length_c  9.9622894
_cell_angle_alpha  119.990843
_cell_angle_beta  119.990843
_cell_angle_gamma  90.015861
_cell_formula_units_Z 1
loop_
_atom_type_symbol
_atom_type_radius_bond
H  .38
C  .77
N  .75
F  .71
Zn 1.35
loop_
_atom_site_label
_atom_site_type_symbol
_atom_site_fract_x
_atom_site_fract_y
_atom_site_fract_z
H1   H     0.150314337489101   0.7998806373033   0.6068232803439
H2   H     0.193057356959401   0.5434910571452   0.3931767196561
H3   H     0.2001193626967   0.8069426430406   0.3504337001858
H4   H     0.4565089428548   0.8496856625109   0.6495662998142
H5   H     0.167028937383601   0.97510695499919   0.91020331121914
H6   H     6.49036437800506E-02   0.2568256261644   8.97966887808604E-02
H7   H     2.48930450008104E-02   0.93509635621995   0.1919219823844
H8   H     0.7431743738356   0.8329710626164   0.8080780176156
C1   C     0.79143343095   0.8859315065539   0.4429014216336
C2   C     0.4430300849203   0.3485320093164   0.5570985783664
C3   C     0.1140684934461   0.5569699150797   0.90550192439604
C4   C     0.651467990683601   0.20856656905   9.44980756039602E-02
C5   C     0.6533519056955   0.8758564215037   0.281153559906401
C6   C     0.5947028615972   0.3721983457891   0.7188464400936
C7   C     0.124143578496301   0.4052971384028   0.7774954841919
C8   C     0.6278016542109   0.3466480943045   0.2225045158081
C9   C     0.91778077408455   0.8245491763692   0.4438280403375
C10   C     0.380721136031601   0.473952733747   0.5561719596625
C11   C     0.175450823630801   0.6192788639684   9.32315977153902E-02
C12   C     0.526047266253   8.22192259154498E-02   0.90676840228461
C13   C     6.16695841523405E-02   0.94455408002771   0.7741909416239
C14   C     0.1703631384039   0.2874786425285   0.2258090583761
C15   C     5.54459199722906E-02   0.8296368615961   0.1171155041246
C16   C     0.7125213574715   0.93833041584766   0.8828844958754
C17   C     0.8120455179035   0.97038753748406   0.617968159862401
C18   C     0.3524193776217   0.1940773580411   0.3820318401376
C19   C     2.96124625159404E-02   0.6475806223783   0.8416579804195
C20   C     0.805922641958901   0.1879544820965   0.1583420195805
C21   C     0.242160522902501   0.4456881240222   0.3926589872226
C22   C     5.30291367996205E-02   0.8495015356799   0.6073410127774
C23   C     0.554311875977801   0.94697086320038   0.7964723988803
C24   C     0.1504984643201   0.7578394770975   0.2035276011197
N1   N     0.6244904343734   1.01058721638698E-02   0.2856975479275
N2   N     0.7244083242364   0.3387928864459   0.7143024520725
N3   N     0.98989412783613   0.2755916757636   0.6143845622095
N4   N     0.6612071135541   0.3755095656266   0.3856154377905
N5   N     0.480032869793601   0.95405753589189   0.113532545291701
N6   N     0.8405249906002   0.3665003245019   0.8864674547083
N7   N     4.59424641081105E-02   0.1594750093998   0.5259753339017
N8   N     0.6334996754981   0.5199671302064   0.4740246660983
N9   N     0.5324633173993   0.7393749610472   0.1115110716538
N10   N     0.6278638893934   0.4209522457455   0.8884889283462
N11   N     0.2606250389528   0.3721361106066   0.7930883563521
N12   N     0.579047754254501   0.4675366826007   0.2069116436479
N13   N     0.4245608578956   0.7921453048239   9.23097423023739E-03
N14   N     0.7829143305936   0.4153298836653   0.990769025769763
N15   N     0.2078546951761   0.2170856694064   0.6324155530717
N16   N     0.5846701163347   0.5754391421044   0.3675844469283
N17   N     0.94071498638885   3.93297333791382E-03   0.778308916004
N18   N     0.225624057333901   0.1624060703848   0.221691083996
N19   N     0.996067026662085   0.7743759426661   0.93678201305093
N20   N     0.8375939296152   5.92850136111498E-02   6.32179869490703E-02
F1   F     0.90735076266006   0.7434257770346   0.281422651054901
F2   F     0.4620031259797   0.6259281116052   0.7185773489451
F3   F     0.2565742229654   0.5379968740203   0.1639249856254
F4   F     0.3740718883948   9.26492373399398E-02   0.8360750143746
F5   F     0.6869883756591   2.03258520152698E-02   0.6212680705815
F6   F     0.3990577814338   6.57203050775699E-02   0.3787319294185
F7   F     0.97967414798473   0.6009422185662   0.6666625236438
F8   F     0.93427969492243   0.3130116243409   0.3333374763562
Zn1   Zn     0.75   0.25   0.5
Zn2   Zn     0.5   0.5   3.26534589298322E-16
#END
