data_CSD_CIF_MOLDRAW
_audit_creation_date 11-24-2023
_audit_creation_method MOLDRAW
_chemical_formula_sum 'H8 C24 N20 F8 Zn2'
_chemical_formula_moiety
;
H8 C24 N20 F8 Zn2
;
loop_
_publ_author_name
Ugliengo
_cell_volume 684.342
_exptl_crystal_density_diffrn ?
_diffrn_ambient_temperature ?
_refine_ls_R_factor_gt ?
_refine_ls_wR_factor_gt ?
_symmetry_space_group_name_H-M 'P 1'
_symmetry_cell_setting null
_symmetry_Int_Tables_number 1
loop_
_symmetry_equiv_pos_site_id
_symmetry_equiv_pos_as_xyz
1 x,y,z
_cell_length_a  9.6553985
_cell_length_b  9.6553985
_cell_length_c  9.6553985
_cell_angle_alpha  113.310759
_cell_angle_beta  113.310759
_cell_angle_gamma  102.038217
_cell_formula_units_Z 1
loop_
_atom_type_symbol
_atom_type_radius_bond
H  .38
C  .77
N  .75
F  .71
Zn 1.35
loop_
_atom_site_label
_atom_site_type_symbol
_atom_site_fract_x
_atom_site_fract_y
_atom_site_fract_z
H1   H     0.747858275436301   5.50433081936906E-02   0.645620338628
H2   H     0.409422969565601   0.102237936808201   0.354379661372
H3   H     0.944956691806311   0.590577030434401   0.692814967242601
H4   H     0.897762063191801   0.252141724563701   0.3071850327574
H5   H     0.173126929056301   1.74581890124451E-03   0.9105344019019
H6   H     9.12114169993507E-02   0.262592527154401   8.94655980981005E-02
H7   H     0.998254181098757   0.908788583000651   0.171381110155101
H8   H     0.7374074728456   0.826873070943701   0.828618889844901
C1   C     0.802754574516501   0.891443709348501   0.4657693249753
C2   C     0.425674384373101   0.336985249541201   0.5342306750247
C3   C     0.108556290651501   0.574325615626901   0.911310865168021
C4   C     0.663014750458801   0.197245425483501   8.86891348319805E-02
C5   C     0.672105747895401   0.876223449314501   0.3098817569677
C6   C     0.566341692346901   0.362223990927701   0.690118243032301
C7   C     0.123776550685501   0.433658307653101   0.795882298580801
C8   C     0.6377760090723   0.3278942521046   0.2041177014192
C9   C     0.910733902842621   0.815136152624901   0.461600643097901
C10   C     0.353535509527001   0.449133259744701   0.5383993569021
C11   C     0.184863847375101   0.646464490473   9.55977502176905E-02
C12   C     0.550866740255301   8.92660971573805E-02   0.90440224978231
C13   C     6.82437288665307E-02   0.967286754099881   0.7829627529734
C14   C     0.184324001126501   0.2852809758931   0.2170372470266
C15   C     3.27132459001207E-02   0.815675998873501   0.100956974766701
C16   C     0.714719024106901   0.931756271133471   0.899043025233301
C17   C     0.833677778811101   0.999424210406788   0.635210115424901
C18   C     0.3642140949819   0.1984676633862   0.3647898845751
C19   C     5.75789593212829E-04   0.635785905018101   0.834253568404301
C20   C     0.801532336613801   0.1663222211889   0.165746431595701
C21   C     0.231243323633201   0.422066539968601   0.3788974926561
C22   C     4.31690473125405E-02   0.852345830977201   0.621102507343901
C23   C     0.577933460031401   0.956830952687461   0.809176783664601
C24   C     0.147654169022801   0.768756676366801   0.190823216335401
N1   N     0.631736169915501   4.98968737389244E-03   0.3206337473196
N2   N     0.684355940054301   0.311102422595801   0.679366252680401
N3   N     0.995010312626108   0.315644059945701   0.6267464825416
N4   N     0.688897577404201   0.368263830084501   0.3732535174584
N5   N     0.502420376052901   0.950275262930051   0.153893345588801
N6   N     0.796381917341201   0.348527030464001   0.8461066544112
N7   N     4.97247370699507E-02   0.2036180826588   0.5521451131228
N8   N     0.651472969536001   0.497579623947101   0.447854886877201
N9   N     0.571862858371701   0.745051572519601   0.139423692506501
N10   N     0.605627880013001   0.432439165865201   0.860576307493501
N11   N     0.254948427480401   0.394372119987001   0.826811285852101
N12   N     0.567560834134801   0.428137141628301   0.173188714147901
N13   N     0.467019172920701   0.794711150575401   4.48938803714507E-02
N14   N     0.749817270204001   0.422125292549301   0.95510611962855
N15   N     0.205288849424601   0.250182729796001   0.672308022345301
N16   N     0.577874707450701   0.532980827079301   0.327691977654701
N17   N     0.96316583923494   3.88499185320706E-02   0.7886509326662
N18   N     0.250198985865801   0.174514906568701   0.211349067333801
N19   N     0.961150081467931   0.749801014134201   0.924315920702881
N20   N     0.825485093431301   3.68341607650605E-02   7.56840792971205E-02
F1   F     0.889251174489201   0.708346174193301   0.305940438498101
F2   F     0.402405735695201   0.583310735991101   0.694059561501901
F3   F     0.291653825806701   0.597594264304801   0.180905000295901
F4   F     0.416689264008901   0.110748825510801   0.8190949997041
F5   F     0.145699943342201   0.777522288921501   0.618390762287801
F6   F     0.159131526633701   0.527309181054401   0.381609237712201
F7   F     0.222477711078501   0.840868473366301   0.368177654420801
F8   F     0.472690818945601   0.854300056657801   0.631822345579201
Zn1   Zn     0.750000000000001   0.250000000000001   0.5
Zn2   Zn     0.500000000000001   0.500000000000001   5.05292422486869E-16
#END
