data_CSD_CIF_MOLDRAW
_audit_creation_date 11-24-2023
_audit_creation_method MOLDRAW
_chemical_formula_sum 'H8 C24 N20 F8 Zn2'
_chemical_formula_moiety
;
H8 C24 N20 F8 Zn2
;
loop_
_publ_author_name
Ugliengo
_cell_volume 698.1908
_exptl_crystal_density_diffrn ?
_diffrn_ambient_temperature ?
_refine_ls_R_factor_gt ?
_refine_ls_wR_factor_gt ?
_symmetry_space_group_name_H-M 'P 1'
_symmetry_cell_setting null
_symmetry_Int_Tables_number 1
loop_
_symmetry_equiv_pos_site_id
_symmetry_equiv_pos_as_xyz
1 x,y,z
_cell_length_a  9.7355036
_cell_length_b  9.7355036
_cell_length_c  9.7355036
_cell_angle_alpha  114.011163
_cell_angle_beta  114.011163
_cell_angle_gamma  100.729398
_cell_formula_units_Z 1
loop_
_atom_type_symbol
_atom_type_radius_bond
H  .38
C  .77
N  .75
F  .71
Zn 1.35
loop_
_atom_site_label
_atom_site_type_symbol
_atom_site_fract_x
_atom_site_fract_y
_atom_site_fract_z
H1   H     0.8092424595918   7.42802197978596E-02   0.6697427703318
H2   H     0.4045374494661   0.13949968926   0.3302572296682
H3   H     0.92571978020214   0.5954625505339   0.734962239794
H4   H     0.86050031074   0.1907575404082   0.265037760206
H5   H     0.1189767566568   0.7375033241899   0.568387301342
H6   H     0.1691160228478   0.5505894553148   0.431612698658
H7   H     0.2624966758101   0.8308839771522   0.381473432467
H8   H     0.4494105446852   0.8810232433432   0.618526567533
C1   C     0.8231381268253   0.8869637322815   0.4611515210261
C2   C     0.4258122112555   0.3619866057993   0.5388484789739
C3   C     0.1130362677185   0.574187788744499   0.9361743945438
C4   C     0.6380133942007   0.1768618731747   6.38256054561997E-02
C5   C     0.6855431878283   0.8767382789772   0.3145551866919
C6   C     0.5621830922853   0.3709880011364   0.6854448133081
C7   C     0.1232617210228   0.4378169077147   0.8088049088511
C8   C     0.6290119988636   0.3144568121717   0.1911950911489
C9   C     0.91456078711409   0.7929640557911   0.4390365106554
C10   C     0.3539275451357   0.4755242764587   0.5609634893446
C11   C     0.2070359442089   0.6460724548643   0.121596731323
C12   C     0.5244757235413   8.54392128859096E-02   0.878403268677
C13   C     8.52649060318698E-02   0.92729994097773   0.751655979876
C14   C     0.1756439611017   0.3336089261559   0.248344020124
C15   C     7.27000590222697E-02   0.8243560388983   0.1579649650541
C16   C     0.6663910738441   0.91473509396813   0.8420350349459
C17   C     0.8746229061756   0.997806980110639   0.6390804821251
C18   C     0.3587264979855   0.2355424240505   0.3609195178749
C19   C     2.19301988936072E-03   0.6412735020145   0.876815926065
C20   C     0.7644575759495   0.1253770938244   0.123184073935
C21   C     0.226535588038   0.4640098063583   0.4167283841647
C22   C     4.72814221935798E-02   0.8098072038733   0.5832716158353
C23   C     0.5359901936417   0.95271857780642   0.7625257816798
C24   C     0.1901927961267   0.773464411962   0.2374742183202
N1   N     0.6437338500158   5.73207677227853E-03   0.3335157309339
N2   N     0.6722163458383   0.3102181190818   0.6664842690661
N3   N     0.994267923227721   0.3277836541617   0.6380017732435
N4   N     0.6897818809182   0.3562661499842   0.3619982267565
N5   N     0.5035781352737   0.95140776806352   0.1741489102701
N6   N     0.7772588577934   0.3294292250036   0.8258510897299
N7   N     4.85922319364798E-02   0.2227411422066   0.5521703672102
N8   N     0.6705707749964   0.4964218647263   0.4478296327898
N9   N     0.5749176024112   0.7454688849705   0.1453566579334
N10   N     0.6001122270371   0.4295609444778   0.8546433420666
N11   N     0.2545311150295   0.3998877729629   0.8294487174407
N12   N     0.5704390555222   0.4250823975888   0.1705512825593
N13   N     0.4627019416673   0.7957492765041   6.09701514644098E-02
N14   N     0.7347791250397   0.4017317902029   0.93902984853559
N15   N     0.2042507234959   0.2652208749603   0.6669526651632
N16   N     0.5982682097971   0.5372980583327   0.3330473348368
N17   N     3.73621902267483E-03   1.86850413855196E-02   0.7813101166105
N18   N     0.237374924775   0.2224261024121   0.2186898833895
N19   N     0.98131495861448   0.762625075225   0.98505117763716
N20   N     0.7775738975879   0.996263780977325   1.49488223628398E-02
F1   F     0.8730105850891   0.6825917949478   0.2735897373413
F2   F     0.4090020576065   0.5994208477478   0.7264102626587
F3   F     0.3174082050522   0.5909979423935   0.1904187901412
F4   F     0.4005791522522   0.1269894149109   0.8095812098588
F5   F     0.214697184186   0.94916750842528   0.894605353124
F6   F     5.45621553012599E-02   0.320091831062   0.105394646876
F7   F     5.08324915747199E-02   0.94543784469874   0.2655296757608
F8   F     0.679908168938   0.785302815814   0.7344703242392
Zn1   Zn     0.75   0.25   0.5
Zn2   Zn     0.5   0.5   -2.9506562124193E-16
#END
