data_CSD_CIF_MOLDRAW
_audit_creation_date 11-24-2023
_audit_creation_method MOLDRAW
_chemical_formula_sum 'H8 C24 N20 F8 Zn2'
_chemical_formula_moiety
;
H8 C24 N20 F8 Zn2
;
loop_
_publ_author_name
Ugliengo
_cell_volume 704.93
_exptl_crystal_density_diffrn ?
_diffrn_ambient_temperature ?
_refine_ls_R_factor_gt ?
_refine_ls_wR_factor_gt ?
_symmetry_space_group_name_H-M 'P 1'
_symmetry_cell_setting null
_symmetry_Int_Tables_number 1
loop_
_symmetry_equiv_pos_site_id
_symmetry_equiv_pos_as_xyz
1 x,y,z
_cell_length_a  9.8632028
_cell_length_b  9.8632028
_cell_length_c  9.8632028
_cell_angle_alpha  117.133137
_cell_angle_beta  117.133137
_cell_angle_gamma  95.041693
_cell_formula_units_Z 1
loop_
_atom_type_symbol
_atom_type_radius_bond
H  .38
C  .77
N  .75
F  .71
Zn 1.35
loop_
_atom_site_label
_atom_site_type_symbol
_atom_site_fract_x
_atom_site_fract_y
_atom_site_fract_z
H1   H     0.905009548770839   0.724769215270199   0.323218193751499
H2   H     0.401551021518799   0.581791355019399   0.676781806248499
H3   H     0.275230784729799   0.598448978481199   0.180240333500599
H4   H     0.418208644980599   9.49904512291594E-02   0.819759666499399
H5   H     0.170665473157899   0.995618011256605   0.91718353758222
H6   H     7.84344736743893E-02   0.253481935575699   8.28164624177794E-02
H7   H     4.38198874339224E-03   0.921565526325609   0.175047461901299
H8   H     0.746518064424299   0.8293345268421   0.824952538098699
C1   C     0.797959788570099   0.879692594477099   0.452235908961999
C2   C     0.427456685515099   0.345723879608199   0.547764091037999
C3   C     0.120307405522899   0.572543314484899   0.918267194093039
C4   C     0.654276120391799   0.202040211429899   8.17328059069594E-02
C5   C     0.669197211324799   0.873108547354599   0.294198719327999
C6   C     0.578909828026699   0.374998491996799   0.705801280671999
C7   C     0.126891452645399   0.421090171973299   0.7960886639702
C8   C     0.625001508003199   0.330802788675199   0.203911336029799
C9   C     0.914022752302119   0.807248106297899   0.450201657456299
C10   C     0.357046448841599   0.463821094845899   0.5497983425437
C11   C     0.192751893702099   0.6429535511584   0.106774646004199
C12   C     0.536178905154099   8.59772476978794E-02   0.893225353995799
C13   C     6.48422150566093E-02   0.959161583354859   0.7838547924127
C14   C     0.175306790942099   0.280987422643899   0.216145207587299
C15   C     4.08384166451394E-02   0.8246932090579   0.105680631701799
C16   C     0.719012577356099   0.93515778494339   0.894319368298199
C17   C     0.821509573117499   0.9796575827955   0.623947587025499
C18   C     0.355709995769999   0.197561986091999   0.376052412974499
C19   C     2.03424172044992E-02   0.644290004229999   0.841851990321999
C20   C     0.802438013907999   0.178490426882499   0.158148009677999
C21   C     0.230582456040899   0.428075300906799   0.380927145929599
C22   C     4.71481549771493E-02   0.8496553101113   0.619072854070399
C23   C     0.571924699093199   0.952851845022849   0.802507155134099
C24   C     0.150344689888699   0.769417543959099   0.197492844865899
N1   N     0.643609053437499   7.6855063773514E-03   0.299432617946699
N2   N     0.708252888430699   0.344176435490799   0.700567382053299
N3   N     0.992314493622647   0.291747111569299   0.635923547060099
N4   N     0.655823564509199   0.356390946562499   0.364076452939899
N5   N     0.516310383291599   0.954311832571839   0.125655888337299
N6   N     0.828655944234599   0.390654494954299   0.874344111662699
N7   N     4.56881674281592E-02   0.171344055765399   0.561998550719699
N8   N     0.609345505045699   0.483689616708399   0.438001449280299
N9   N     0.560904959066199   0.739666268891   0.122112785271299
N10   N     0.617553483619699   0.438792173794899   0.877887214728699
N11   N     0.260333731108999   0.382446516380299   0.821238690175199
N12   N     0.561207826205099   0.439095040933799   0.178761309824799
N13   N     0.466982315406699   0.793428143381999   1.82611459211293E-02
N14   N     0.775166997460899   0.448721169485599   0.981738854078869
N15   N     0.206571856617999   0.224833002539099   0.673554172024699
N16   N     0.551278830514399   0.533017684593299   0.326445827975299
N17   N     0.948387802243899   2.14740596456794E-02   0.783242057789099
N18   N     0.238232001856599   0.165145744454799   0.216757942210899
N19   N     0.978525940354319   0.761767998143399   0.926913742598229
N20   N     0.834854255545199   5.16121977560994E-02   7.30862574017694E-02
F1   F     0.703560466482499   3.86660763214494E-02   0.627994061814299
F2   F     0.410672014507199   7.55664046682594E-02   0.372005938185699
F3   F     0.961333923678549   0.5893279854928   0.664894390161099
F4   F     0.924433595331739   0.296439533517499   0.335105609838899
F5   F     0.165896062952899   0.789302033798099   0.627876318048099
F6   F     0.161425715749999   0.5380197449048   0.372123681951899
F7   F     0.210697966201899   0.83857428425   0.376594029154699
F8   F     0.461980255095199   0.8341039370471   0.623405970845299
Zn1   Zn     0.749999999999999   0.249999999999999   0.499999999999999
Zn2   Zn     0.499999999999999   0.5   -6.00620898502657E-16
#END
