data_CSD_CIF_MOLDRAW
_audit_creation_date 11-24-2023
_audit_creation_method MOLDRAW
_chemical_formula_sum 'H8 C24 N20 F8 Zn2'
_chemical_formula_moiety
;
H8 C24 N20 F8 Zn2
;
loop_
_publ_author_name
Ugliengo
_cell_volume 700.2562
_exptl_crystal_density_diffrn ?
_diffrn_ambient_temperature ?
_refine_ls_R_factor_gt ?
_refine_ls_wR_factor_gt ?
_symmetry_space_group_name_H-M 'P 1'
_symmetry_cell_setting null
_symmetry_Int_Tables_number 1
loop_
_symmetry_equiv_pos_site_id
_symmetry_equiv_pos_as_xyz
1 x,y,z
_cell_length_a  9.7558186
_cell_length_b  9.7558186
_cell_length_c  9.7558186
_cell_angle_alpha  114.445299
_cell_angle_beta  114.445299
_cell_angle_gamma  99.924563
_cell_formula_units_Z 1
loop_
_atom_type_symbol
_atom_type_radius_bond
H  .38
C  .77
N  .75
F  .71
Zn 1.35
loop_
_atom_site_label
_atom_site_type_symbol
_atom_site_fract_x
_atom_site_fract_y
_atom_site_fract_z
H1   H     0.8679575819051   0.7008661041686   0.2745696142047
H2   H     0.4262964899638   0.5933879677003   0.7254303857953
H3   H     0.2991338958314   0.5737035100362   0.1670914777365
H4   H     0.4066120322997   0.1320424180949   0.8329085222635
H5   H     0.1087331370154   0.7337221174797   0.5408029177124
H6   H     0.1929191997673   0.567930219303   0.4591970822876
H7   H     0.2662778825203   0.8070808002327   0.3750110195357
H8   H     0.432069780697   0.8912668629846   0.6249889804643
C1   C     0.8019314185323   0.8702473478001   0.4378139944219
C2   C     0.4324333533782   0.3641174241104   0.5621860055781
C3   C     0.1297526521999   0.5675666466218   0.93168407073215
C4   C     0.6358825758896   0.1980685814677   6.83159292678499E-02
C5   C     0.6718539791489   0.8720720978241   0.2950269846817
C6   C     0.5770451131424   0.3768269944672   0.7049730153183
C7   C     0.1279279021759   0.4229548868576   0.7997818813248
C8   C     0.6231730055328   0.3281460208511   0.2002181186752
C9   C     0.8972735125171   0.7816372547335   0.4098400870749
C10   C     0.3717971676586   0.4874334254422   0.5901599129251
C11   C     0.2183627452665   0.6282028323414   0.1156362577836
C12   C     0.5125665745578   0.1027264874829   0.8843637422164
C13   C     6.66407713322698E-02   0.90981430819828   0.725887855455
C14   C     0.1839264527433   0.3407529158773   0.274112144545
C15   C     9.01856918017199E-02   0.8160735472567   0.156826463134
C16   C     0.6592470841227   0.93335922866773   0.843173536866
C17   C     0.8476606069074   0.96732880982042   0.6158304592503
C18   C     0.3514983505701   0.2318301476571   0.3841695407497
C19   C     3.26711901795797E-02   0.6485016494299   0.880331797087
C20   C     0.7681698523429   0.1523393930926   0.119668202913
C21   C     0.2444913645725   0.4761282687667   0.4444514949697
C22   C     3.16767737969898E-02   0.8000398696028   0.5555485050303
C23   C     0.5238717312333   0.96832322620301   0.7683630958059
C24   C     0.1999601303972   0.7555086354275   0.2316369041941
N1   N     0.6413777049741   5.95582287351818E-03   0.3080657313082
N2   N     0.6978900915653   0.3333119736658   0.6919342686918
N3   N     0.994044177126482   0.3021099084347   0.6354218821006
N4   N     0.6666880263342   0.3586222950259   0.3645781178994
N5   N     0.5151698160404   0.95578370277302   0.140217562728
N6   N     0.815566140045   0.3749522533124   0.859782437272
N7   N     4.42162972269797E-02   0.184433859955   0.5593861132674
N8   N     0.6250477466876   0.4848301839596   0.4406138867326
N9   N     0.5669501128255   0.742104794058   0.1242806397716
N10   N     0.6178241542864   0.4426694730539   0.8757193602284
N11   N     0.257895205942   0.3821758457136   0.8248453187675
N12   N     0.5573305269461   0.4330498871745   0.1751546812325
N13   N     0.4710991168557   0.7979275365318   2.94069393258201E-02
N14   N     0.768520597206   0.4416921775299   0.97059306067418
N15   N     0.2020724634682   0.231479402794   0.6731715803239
N16   N     0.5583078224701   0.5289008831443   0.3268284196761
N17   N     0.97593354216644   0.990264920023605   0.7569452612282
N18   N     0.2333196587954   0.2189882809383   0.2430547387718
N19   N     9.7350799763946E-03   0.7666803412046   0.98566862214283
N20   N     0.7810117190617   2.40664578335602E-02   0.01433137785717
F1   F     0.7532884163674   4.61003723833302E-02   0.6486463332527
F2   F     0.3974540391307   0.1046420831147   0.3513536667473
F3   F     0.95389962761667   0.6025459608693   0.707188043984
F4   F     0.8953579168853   0.2467115836326   0.292811956016
F5   F     0.2007044375256   0.93831160739793   0.8703619732939
F6   F     6.79496341040397E-02   0.3303424642317   0.1296380267061
F7   F     6.16883926020697E-02   0.93205036589596   0.2623928301277
F8   F     0.6696575357683   0.7992955624744   0.7376071698723
Zn1   Zn     0.75   0.25   0.5
Zn2   Zn     0.5   0.5   -7.49996852816848E-17
#END
