
#======================================================================
# CRYSTAL DATA
#----------------------------------------------------------------------
data_VESTA_phase_1

_chemical_name_common                  'MIRO101A-F_4'
_cell_length_a                         10.157800
_cell_length_b                         10.157800
_cell_length_c                         13.294200
_cell_angle_alpha                      90.000000
_cell_angle_beta                       90.000000
_cell_angle_gamma                      90.000000
_cell_volume                           1371.707451
_space_group_name_H-M_alt              'P 1'
_space_group_IT_number                 1

loop_
_space_group_symop_operation_xyz
   'x, y, z'

loop_
   _atom_site_label
   _atom_site_occupancy
   _atom_site_fract_x
   _atom_site_fract_y
   _atom_site_fract_z
   _atom_site_adp_type
   _atom_site_U_iso_or_equiv
   _atom_site_type_symbol
   H1         1.0     0.557610     0.737370     0.136670    Uiso  ? H
   H2         1.0     0.442390     0.262630     0.136670    Uiso  ? H
   H3         1.0     0.737370     0.442390     0.863330    Uiso  ? H
   H4         1.0     0.262630     0.557610     0.863330    Uiso  ? H
   H5         1.0     0.057610     0.237370     0.636670    Uiso  ? H
   H6         1.0     0.942390     0.762630     0.636670    Uiso  ? H
   H7         1.0     0.237370     0.942390     0.363330    Uiso  ? H
   H8         1.0     0.762630     0.057610     0.363330    Uiso  ? H
   H9         1.0     0.975920     0.675190     0.090830    Uiso  ? H
   H10        1.0     0.024080     0.324810     0.090830    Uiso  ? H
   H11        1.0     0.675190     0.024080     0.909170    Uiso  ? H
   H12        1.0     0.324810     0.975920     0.909170    Uiso  ? H
   H13        1.0     0.475920     0.175190     0.590830    Uiso  ? H
   H14        1.0     0.524080     0.824810     0.590830    Uiso  ? H
   H15        1.0     0.175190     0.524080     0.409170    Uiso  ? H
   H16        1.0     0.824810     0.475920     0.409170    Uiso  ? H
   H17        1.0     0.605820     0.980580     0.136990    Uiso  ? H
   H18        1.0     0.394180     0.019420     0.136990    Uiso  ? H
   H19        1.0     0.980580     0.394180     0.863010    Uiso  ? H
   H20        1.0     0.019420     0.605820     0.863010    Uiso  ? H
   H21        1.0     0.105820     0.480580     0.636990    Uiso  ? H
   H22        1.0     0.894180     0.519420     0.636990    Uiso  ? H
   H23        1.0     0.480580     0.894180     0.363010    Uiso  ? H
   H24        1.0     0.519420     0.105820     0.363010    Uiso  ? H
   F1         1.0     0.842080     0.057090     0.124020    Uiso  ? F
   F2         1.0     0.157920     0.942910     0.124020    Uiso  ? F
   F3         1.0     0.057090     0.157920     0.875980    Uiso  ? F
   F4         1.0     0.942910     0.842080     0.875980    Uiso  ? F
   F5         1.0     0.342080     0.557090     0.624020    Uiso  ? F
   F6         1.0     0.657920     0.442910     0.624020    Uiso  ? F
   F7         1.0     0.557090     0.657920     0.375980    Uiso  ? F
   F8         1.0     0.442910     0.342080     0.375980    Uiso  ? F
   C1         1.0     0.264650     0.185980     0.616550    Uiso  ? C
   C2         1.0     0.735350     0.814020     0.616550    Uiso  ? C
   C3         1.0     0.185980     0.735350     0.383450    Uiso  ? C
   C4         1.0     0.814020     0.264650     0.383450    Uiso  ? C
   C5         1.0     0.764650     0.685980     0.116550    Uiso  ? C
   C6         1.0     0.235350     0.314020     0.116550    Uiso  ? C
   C7         1.0     0.685980     0.235350     0.883450    Uiso  ? C
   C8         1.0     0.314020     0.764650     0.883450    Uiso  ? C
   C9         1.0     0.251400     0.043170     0.623000    Uiso  ? C
   C10        1.0     0.748600     0.956830     0.623000    Uiso  ? C
   C11        1.0     0.043170     0.748600     0.377000    Uiso  ? C
   C12        1.0     0.956830     0.251400     0.377000    Uiso  ? C
   C13        1.0     0.751400     0.543170     0.123000    Uiso  ? C
   C14        1.0     0.248600     0.456830     0.123000    Uiso  ? C
   C15        1.0     0.543170     0.248600     0.877000    Uiso  ? C
   C16        1.0     0.456830     0.751400     0.877000    Uiso  ? C
   C17        1.0     0.658370     0.773670     0.127340    Uiso  ? C
   C18        1.0     0.341630     0.226330     0.127340    Uiso  ? C
   C19        1.0     0.773670     0.341630     0.872660    Uiso  ? C
   C20        1.0     0.226330     0.658370     0.872660    Uiso  ? C
   C21        1.0     0.158370     0.273670     0.627340    Uiso  ? C
   C22        1.0     0.841630     0.726330     0.627340    Uiso  ? C
   C23        1.0     0.273670     0.841630     0.372660    Uiso  ? C
   C24        1.0     0.726330     0.158370     0.372660    Uiso  ? C
   C25        1.0     0.815690     0.952590     0.120430    Uiso  ? C
   C26        1.0     0.184310     0.047410     0.120430    Uiso  ? C
   C27        1.0     0.952590     0.184310     0.879570    Uiso  ? C
   C28        1.0     0.047410     0.815690     0.879570    Uiso  ? C
   C29        1.0     0.315690     0.452590     0.620430    Uiso  ? C
   C30        1.0     0.684310     0.547410     0.620430    Uiso  ? C
   C31        1.0     0.452590     0.684310     0.379570    Uiso  ? C
   C32        1.0     0.547410     0.315690     0.379570    Uiso  ? C
   C33        1.0     0.391430     0.239650     0.604430    Uiso  ? C
   C34        1.0     0.608570     0.760350     0.604430    Uiso  ? C
   C35        1.0     0.239650     0.608570     0.395570    Uiso  ? C
   C36        1.0     0.760350     0.391430     0.395570    Uiso  ? C
   C37        1.0     0.891430     0.739650     0.104430    Uiso  ? C
   C38        1.0     0.108570     0.260350     0.104430    Uiso  ? C
   C39        1.0     0.739650     0.108570     0.895570    Uiso  ? C
   C40        1.0     0.260350     0.891430     0.895570    Uiso  ? C
   C41        1.0     0.315000     0.091410     0.128220    Uiso  ? C
   C42        1.0     0.685000     0.908590     0.128220    Uiso  ? C
   C43        1.0     0.091410     0.685000     0.871780    Uiso  ? C
   C44        1.0     0.908590     0.315000     0.871780    Uiso  ? C
   C45        1.0     0.815000     0.591410     0.628220    Uiso  ? C
   C46        1.0     0.185000     0.408590     0.628220    Uiso  ? C
   C47        1.0     0.591410     0.185000     0.371780    Uiso  ? C
   C48        1.0     0.408590     0.815000     0.371780    Uiso  ? C
   N1         1.0     0.840770     0.462830     0.167290    Uiso  ? N
   N2         1.0     0.159230     0.537170     0.167290    Uiso  ? N
   N3         1.0     0.462830     0.159230     0.832710    Uiso  ? N
   N4         1.0     0.537170     0.840770     0.832710    Uiso  ? N
   N5         1.0     0.340770     0.962830     0.667290    Uiso  ? N
   N6         1.0     0.659230     0.037170     0.667290    Uiso  ? N
   N7         1.0     0.962830     0.659230     0.332710    Uiso  ? N
   N8         1.0     0.037170     0.340770     0.332710    Uiso  ? N
   N9         1.0     0.294040     0.835850     0.659770    Uiso  ? N
   N10        1.0     0.705960     0.164150     0.659770    Uiso  ? N
   N11        1.0     0.835850     0.705960     0.340230    Uiso  ? N
   N12        1.0     0.164150     0.294040     0.340230    Uiso  ? N
   N13        1.0     0.794040     0.335850     0.159770    Uiso  ? N
   N14        1.0     0.205960     0.664150     0.159770    Uiso  ? N
   N15        1.0     0.335850     0.205960     0.840230    Uiso  ? N
   N16        1.0     0.664150     0.794040     0.840230    Uiso  ? N
   N17        1.0     0.151860     0.967790     0.588400    Uiso  ? N
   N18        1.0     0.848140     0.032210     0.588400    Uiso  ? N
   N19        1.0     0.967790     0.848140     0.411600    Uiso  ? N
   N20        1.0     0.032210     0.151860     0.411600    Uiso  ? N
   N21        1.0     0.651860     0.467790     0.088400    Uiso  ? N
   N22        1.0     0.348140     0.532210     0.088400    Uiso  ? N
   N23        1.0     0.467790     0.348140     0.911600    Uiso  ? N
   N24        1.0     0.532210     0.651860     0.911600    Uiso  ? N
   N25        1.0     0.180020     0.838870     0.612820    Uiso  ? N
   N26        1.0     0.819980     0.161130     0.612820    Uiso  ? N
   N27        1.0     0.838870     0.819980     0.387180    Uiso  ? N
   N28        1.0     0.161130     0.180020     0.387180    Uiso  ? N
   N29        1.0     0.680020     0.338870     0.112820    Uiso  ? N
   N30        1.0     0.319980     0.661130     0.112820    Uiso  ? N
   N31        1.0     0.338870     0.319980     0.887180    Uiso  ? N
   N32        1.0     0.661130     0.680020     0.887180    Uiso  ? N
   N33        1.0     0.917420     0.868770     0.107910    Uiso  ? N
   N34        1.0     0.082580     0.131230     0.107910    Uiso  ? N
   N35        1.0     0.868770     0.082580     0.892090    Uiso  ? N
   N36        1.0     0.131230     0.917420     0.892090    Uiso  ? N
   N37        1.0     0.417420     0.368770     0.607910    Uiso  ? N
   N38        1.0     0.582580     0.631230     0.607910    Uiso  ? N
   N39        1.0     0.368770     0.582580     0.392090    Uiso  ? N
   N40        1.0     0.631230     0.417420     0.392090    Uiso  ? N
   Zn1        1.0     0.000000     0.500000     0.250000    Uiso  ? Zn
   Zn2        1.0     0.500000     0.000000     0.750000    Uiso  ? Zn
   Zn3        1.0     0.000000     0.000000     0.500000    Uiso  ? Zn
   Zn4        1.0     0.500000     0.500000     0.000000    Uiso  ? Zn
